18
Coordinates from ORCA-job orca_IRC_B E -1967.124310906918
  C      -2.979066      1.863469      1.663619
  C      -1.844648      2.624625      1.418300
  C      -0.630907      2.286126      2.015173
  C      -0.557154      1.166157      2.846090
  C      -1.693082      0.406941      3.089510
  C      -2.905950      0.754931      2.500741
  H      -3.919995      2.137007      1.204252
  H      -3.789992      0.160541      2.691687
  H      -1.899018      3.488770      0.767327
  H       0.383889      0.869358      3.293990
  H      -1.631487     -0.459626      3.734892
  C       0.542769      3.143680      1.739858
  N       1.489689      3.336876      2.788947
  H       0.307737      4.063802      1.220271
  H       0.969065      2.468393      0.367559
  H       1.801791      4.287729      2.926753
  H       1.315510      2.841798      3.652004
  Cu      2.302204      2.300247      1.140484
18
Coordinates from ORCA-job orca_IRC_B E -1967.128050724464
  C      -2.981686      1.861646      1.663752
  C      -1.850969      2.624921      1.420243
  C      -0.638053      2.290861      2.017043
  C      -0.558035      1.167042      2.846422
  C      -1.693602      0.406868      3.089206
  C      -2.906922      0.754077      2.500914
  H      -3.920870      2.136711      1.204051
  H      -3.790570      0.160118      2.691991
  H      -1.899527      3.488250      0.768157
  H       0.383443      0.870164      3.293589
  H      -1.631573     -0.459649      3.734806
  C       0.542984      3.127685      1.703430
  N       1.502474      3.327571      2.774838
  H       0.299175      4.073382      1.223067
  H       0.955608      2.490629      0.409597
  H       1.797570      4.287187      2.927138
  H       1.312102      2.843453      3.648534
  Cu      2.339766      2.289950      1.144611
18
Coordinates from ORCA-job orca_IRC_B E -1967.133340317567
  C      -2.983858      1.861678      1.664384
  C      -1.854020      2.624891      1.422262
  C      -0.639576      2.291398      2.013470
  C      -0.558735      1.168640      2.846129
  C      -1.694592      0.407683      3.089267
  C      -2.907990      0.752718      2.501436
  H      -3.923602      2.135955      1.203564
  H      -3.791296      0.159083      2.692387
  H      -1.901447      3.488406      0.768081
  H       0.382384      0.871572      3.292337
  H      -1.631540     -0.459684      3.734739
  C       0.546233      3.120754      1.676204
  N       1.515257      3.319338      2.760801
  H       0.292483      4.074740      1.225364
  H       0.941114      2.516173      0.460928
  H       1.790338      4.280316      2.922606
  H       1.307914      2.845918      3.637399
  Cu      2.372131      2.281340      1.150121
18
Coordinates from ORCA-job orca_IRC_B E -1967.139700610717
  C      -2.986254      1.861608      1.664956
  C      -1.856350      2.625043      1.422986
  C      -0.642326      2.291082      2.010994
  C      -0.559522      1.170420      2.844489
  C      -1.695139      0.408719      3.089281
  C      -2.909013      0.752005      2.501839
  H      -3.925446      2.135141      1.203654
  H      -3.791924      0.158034      2.692726
  H      -1.903512      3.488319      0.768209
  H       0.381894      0.872787      3.291360
  H      -1.631458     -0.459297      3.734623
  C       0.546364      3.113704      1.650156
  N       1.527996      3.309440      2.746894
  H       0.285945      4.076430      1.227120
  H       0.926342      2.541939      0.512393
  H       1.784327      4.275569      2.917160
  H       1.303736      2.847329      3.625922
  Cu      2.405404      2.272753      1.156885
18
Coordinates from ORCA-job orca_IRC_B E -1967.146117491853
  C      -2.989468      1.860293      1.666102
  C      -1.858995      2.626218      1.422573
  C      -0.644669      2.290083      2.009342
  C      -0.560356      1.172927      2.841999
  C      -1.695719      0.409002      3.089728
  C      -2.910005      0.752232      2.501711
  H      -3.927300      2.134402      1.203841
  H      -3.792586      0.156911      2.693127
  H      -1.905765      3.487853      0.768576
  H       0.381587      0.874021      3.290324
  H      -1.631350     -0.458458      3.734327
  C       0.544873      3.108563      1.628841
  N       1.540140      3.298074      2.731839
  H       0.278703      4.078915      1.228699
  H       0.912304      2.566675      0.561953
  H       1.778584      4.270660      2.910666
  H       1.299939      2.848636      3.612713
  Cu      2.440964      2.264171      1.165510
18
Coordinates from ORCA-job orca_IRC_B E -1967.151800661418
  C      -2.990916      1.861249      1.666081
  C      -1.863459      2.624456      1.423744
  C      -0.647978      2.292434      2.005239
  C      -0.560770      1.172524      2.841501
  C      -1.696359      0.410835      3.088984
  C      -2.911248      0.750780      2.502869
  H      -3.930053      2.133525      1.204011
  H      -3.793045      0.155861      2.693547
  H      -1.908470      3.488294      0.768259
  H       0.380523      0.875902      3.288561
  H      -1.631122     -0.457875      3.734380
  C       0.540237      3.105163      1.614375
  N       1.553913      3.288834      2.712828
  H       0.269975      4.082836      1.230625
  H       0.899725      2.590269      0.609502
  H       1.772399      4.262501      2.902208
  H       1.295673      2.848648      3.598556
  Cu      2.481575      2.255178      1.176883
18
Coordinates from ORCA-job orca_IRC_B E -1967.156327894385
  C      -2.995909      1.859162      1.667077
  C      -1.867212      2.626043      1.422551
  C      -0.652238      2.291860      2.005902
  C      -0.562435      1.175423      2.838225
  C      -1.697060      0.410839      3.089245
  C      -2.912677      0.751036      2.502905
  H      -3.933090      2.132394      1.204481
  H      -3.793945      0.154289      2.694326
  H      -1.912344      3.487821      0.768646
  H       0.380176      0.877878      3.286841
  H      -1.630895     -0.456554      3.734062
  C       0.530656      3.112142      1.614580
  N       1.564844      3.275178      2.694540
  H       0.259062      4.088286      1.234185
  H       0.893955      2.606137      0.642154
  H       1.767650      4.254480      2.891086
  H       1.293470      2.848705      3.578874
  Cu      2.528146      2.246645      1.192817
18
Coordinates from ORCA-job orca_IRC_B E -1967.160221518057
  C      -2.999184      1.858319      1.667106
  C      -1.873998      2.625181      1.422876
  C      -0.658398      2.295775      2.007520
  C      -0.564144      1.176100      2.837353
  C      -1.698375      0.411422      3.088317
  C      -2.914770      0.750190      2.503701
  H      -3.938084      2.130794      1.204843
  H      -3.794987      0.152368      2.695534
  H      -1.917636      3.488170      0.768669
  H       0.378708      0.880987      3.284105
  H      -1.630524     -0.455436      3.733953
  C       0.521360      3.117287      1.614748
  N       1.575012      3.266467      2.674209
  H       0.244944      4.097731      1.240811
  H       0.891810      2.619228      0.667644
  H       1.765153      4.243012      2.877288
  H       1.292488      2.845267      3.559848
  Cu      2.580221      2.239414      1.214272
18
Coordinates from ORCA-job orca_IRC_B E -1967.163541211704
  C      -3.005252      1.856460      1.666955
  C      -1.879887      2.626157      1.423781
  C      -0.664492      2.299650      2.010258
  C      -0.567676      1.178980      2.836369
  C      -1.699878      0.411454      3.087637
  C      -2.917501      0.748863      2.504402
  H      -3.943607      2.128310      1.205484
  H      -3.796397      0.150081      2.697161
  H      -1.924562      3.488251      0.769052
  H       0.377442      0.884291      3.281425
  H      -1.630307     -0.454699      3.733740
  C       0.511859      3.124513      1.613049
  N       1.580707      3.255311      2.656360
  H       0.230218      4.106695      1.250735
  H       0.892090      2.628792      0.681224
  H       1.767520      4.234855      2.862934
  H       1.295163      2.839987      3.540660
  Cu      2.633663      2.234922      1.241454
18
Coordinates from ORCA-job orca_IRC_B E -1967.166542962276
  C      -3.010615      1.854826      1.667507
  C      -1.887757      2.627255      1.425137
  C      -0.670782      2.303314      2.011946
  C      -0.570934      1.182294      2.836232
  C      -1.702018      0.411944      3.087144
  C      -2.920384      0.747348      2.504908
  H      -3.950094      2.125092      1.206076
  H      -3.798485      0.147062      2.699113
  H      -1.932934      3.488373      0.769766
  H       0.375022      0.888180      3.278440
  H      -1.630152     -0.454147      3.733214
  C       0.504709      3.127923      1.607927
  N       1.585672      3.248507      2.639008
  H       0.215475      4.116357      1.261793
  H       0.891210      2.638849      0.687540
  H       1.773618      4.224665      2.847958
  H       1.300251      2.832345      3.523688
  Cu      2.686934      2.233295      1.274507
18
Coordinates from ORCA-job orca_IRC_B E -1967.169310105221
  C      -3.016804      1.852988      1.668808
  C      -1.894758      2.628133      1.426982
  C      -0.675998      2.306924      2.011323
  C      -0.575138      1.185610      2.835814
  C      -1.704385      0.412656      3.087204
  C      -2.923982      0.745596      2.505621
  H      -3.956884      2.121287      1.206907
  H      -3.800389      0.143818      2.700946
  H      -1.942512      3.488944      0.770526
  H       0.372538      0.892174      3.275848
  H      -1.630085     -0.453602      3.732472
  C       0.496929      3.132672      1.603282
  N       1.589562      3.239814      2.622263
  H       0.202494      4.123670      1.273056
  H       0.888980      2.649004      0.686105
  H       1.782732      4.216135      2.833472
  H       1.307526      2.824061      3.507813
  Cu      2.738470      2.234035      1.312172
18
Coordinates from ORCA-job orca_IRC_B E -1967.171890484301
  C      -3.022613      1.851990      1.669986
  C      -1.902619      2.628954      1.427993
  C      -0.681565      2.308853      2.010624
  C      -0.578712      1.188695      2.834986
  C      -1.706700      0.413736      3.087296
  C      -2.927151      0.743906      2.506867
  H      -3.963406      2.117219      1.208258
  H      -3.802790      0.140003      2.702730
  H      -1.952776      3.489376      0.771737
  H       0.369307      0.896277      3.273379
  H      -1.630063     -0.452940      3.731774
  C       0.492155      3.134881      1.596144
  N       1.592860      3.232519      2.607421
  H       0.190837      4.131402      1.283507
  H       0.883730      2.660780      0.681576
  H       1.793288      4.206520      2.819294
  H       1.315852      2.815632      3.493078
  Cu      2.787898      2.236235      1.352767
18
Coordinates from ORCA-job orca_IRC_B E -1967.174306005890
  C      -3.028466      1.850024      1.672057
  C      -1.909089      2.629428      1.429160
  C      -0.685790      2.311421      2.007958
  C      -0.582677      1.191667      2.833578
  C      -1.709426      0.414786      3.087374
  C      -2.931077      0.742073      2.508183
  H      -3.970365      2.113330      1.209793
  H      -3.804431      0.136576      2.704311
  H      -1.963387      3.490153      0.772817
  H       0.366546      0.900104      3.271340
  H      -1.630031     -0.452334      3.731416
  C       0.485486      3.138376      1.590679
  N       1.596325      3.224909      2.592507
  H       0.181006      4.137808      1.293845
  H       0.877240      2.672191      0.673154
  H       1.804379      4.197200      2.805589
  H       1.323931      2.807094      3.479661
  Cu      2.836467      2.239027      1.395353
18
Coordinates from ORCA-job orca_IRC_B E -1967.176513630963
  C      -3.034180      1.849401      1.673168
  C      -1.916755      2.629711      1.429512
  C      -0.690962      2.312534      2.005887
  C      -0.585848      1.193776      2.832299
  C      -1.711209      0.415878      3.087558
  C      -2.933773      0.740545      2.509653
  H      -3.976529      2.109417      1.212144
  H      -3.807076      0.132467      2.706134
  H      -1.974156      3.490592      0.774191
  H       0.362971      0.904025      3.269014
  H      -1.629988     -0.451198      3.731064
  C       0.482242      3.140758      1.583682
  N       1.599432      3.217603      2.578605
  H       0.172066      4.144940      1.303899
  H       0.868998      2.684748      0.664391
  H       1.815329      4.187627      2.792208
  H       1.331581      2.799065      3.466567
  Cu      2.884150      2.241567      1.438586
18
Coordinates from ORCA-job orca_IRC_B E -1967.178473620267
  C      -3.039551      1.846822      1.675797
  C      -1.922028      2.629717      1.430471
  C      -0.693782      2.315291      2.001874
  C      -0.589656      1.196896      2.829846
  C      -1.714542      0.416911      3.087211
  C      -2.938080      0.738134      2.511272
  H      -3.983919      2.106021      1.214351
  H      -3.807837      0.129594      2.707710
  H      -1.985054      3.491626      0.775039
  H       0.360847      0.907459      3.267204
  H      -1.629773     -0.450488      3.731416
  C       0.475544      3.143768      1.578586
  N       1.603325      3.209893      2.564605
  H       0.164661      4.150936      1.314463
  H       0.861131      2.697219      0.653667
  H       1.826108      4.178646      2.779119
  H       1.338393      2.791439      3.453669
  Cu      2.931128      2.243339      1.481858
18
Coordinates from ORCA-job orca_IRC_B E -1967.180069707803
  C      -3.045095      1.848296      1.675356
  C      -1.930566      2.629501      1.430050
  C      -0.700324      2.314894      1.999572
  C      -0.591567      1.196857      2.829394
  C      -1.714195      0.418399      3.087402
  C      -2.938699      0.737181      2.512773
  H      -3.988605      2.102308      1.218140
  H      -3.811961      0.124610      2.710071
  H      -1.995628      3.491611      0.776562
  H       0.356307      0.911455      3.264122
  H      -1.629569     -0.448590      3.731234
  C       0.476588      3.146846      1.572074
  N       1.605989      3.203327      2.551333
  H       0.157628      4.158106      1.324647
  H       0.852751      2.710686      0.644126
  H       1.835895      4.169107      2.766176
  H       1.344401      2.784685      3.441163
  Cu      2.974616      2.244171      1.523088
18
Coordinates from ORCA-job orca_IRC_B E -1967.180383286874
  C      -3.045716      1.846691      1.676729
  C      -1.930491      2.629610      1.430279
  C      -0.699484      2.315899      1.998463
  C      -0.592528      1.198287      2.828137
  C      -1.715620      0.418292      3.087243
  C      -2.940291      0.736487      2.513012
  H      -3.990487      2.102014      1.218337
  H      -3.811076      0.124804      2.710210
  H      -1.997446      3.492009      0.776496
  H       0.356774      0.911790      3.264078
  H      -1.629437     -0.448592      3.731510
  C       0.473778      3.147071      1.571427
  N       1.606890      3.201795      2.549180
  H       0.156851      4.158864      1.326591
  H       0.851660      2.712972      0.641996
  H       1.837677      4.167956      2.764065
  H       1.345203      2.783551      3.439132
  Cu      2.981782      2.244097      1.530249
18
Coordinates from ORCA-job orca_IRC_B E -1967.181098498946
  C      -3.047864      1.844619      1.678708
  C      -1.932716      2.630049      1.430080
  C      -0.699691      2.316658      1.996551
  C      -0.594272      1.200516      2.825966
  C      -1.717040      0.418197      3.087370
  C      -2.942724      0.735818      2.513323
  H      -3.994205      2.100778      1.219706
  H      -3.810966      0.123731      2.711128
  H      -2.002565      3.492328      0.776903
  H       0.356327      0.913205      3.263151
  H      -1.629147     -0.447928      3.731817
  C       0.470418      3.148436      1.568845
  N       1.608490      3.198018      2.543028
  H       0.154230      4.161624      1.331960
  H       0.848041      2.719794      0.636453
  H       1.842444      4.163977      2.757881
  H       1.347512      2.780472      3.433355
  Cu      3.001857      2.243765      1.550544
18
Coordinates from ORCA-job orca_IRC_B E -1967.181825836246
  C      -3.050494      1.844700      1.679114
  C      -1.936574      2.629959      1.429704
  C      -0.702313      2.316510      1.994626
  C      -0.595385      1.200948      2.824944
  C      -1.716887      0.418877      3.087401
  C      -2.943533      0.735301      2.514028
  H      -3.996985      2.099145      1.221966
  H      -3.812388      0.121602      2.712487
  H      -2.008137      3.492342      0.777548
  H       0.354550      0.915161      3.261400
  H      -1.628814     -0.446777      3.731920
  C       0.469968      3.150292      1.565909
  N       1.609697      3.194343      2.536426
  H       0.151066      4.165272      1.337759
  H       0.843666      2.727613      0.630161
  H       1.847362      4.159038      2.750938
  H       1.349712      2.777322      3.427118
  Cu      3.023290      2.243079      1.573174
18
Coordinates from ORCA-job orca_IRC_B E -1967.182504263257
  C      -3.052880      1.843209      1.680738
  C      -1.939059      2.629806      1.429623
  C      -0.703070      2.317463      1.991998
  C      -0.596824      1.202664      2.822795
  C      -1.718519      0.419262      3.087068
  C      -2.945252      0.734257      2.514895
  H      -4.000792      2.097864      1.223880
  H      -3.812453      0.120383      2.713696
  H      -2.013731      3.492861      0.777746
  H       0.353987      0.916812      3.259992
  H      -1.628283     -0.446009      3.732421
  C       0.467069      3.151560      1.562490
  N       1.611236      3.190192      2.529904
  H       0.148274      4.168467      1.343902
  H       0.839195      2.735786      0.623833
  H       1.852363      4.154596      2.744128
  H       1.351379      2.774259      3.421263
  Cu      3.044354      2.242134      1.596464
18
Coordinates from ORCA-job orca_IRC_B E -1967.183122619397
  C      -3.055368      1.843346      1.681168
  C      -1.942701      2.629638      1.429068
  C      -0.705683      2.317244      1.989516
  C      -0.597728      1.202926      2.821544
  C      -1.718117      0.420025      3.086976
  C      -2.945862      0.733824      2.515649
  H      -4.003641      2.096418      1.226408
  H      -3.813808      0.118334      2.715297
  H      -2.019253      3.492851      0.778227
  H       0.352464      0.918726      3.257935
  H      -1.627723     -0.444782      3.732657
  C       0.466712      3.153436      1.559990
  N       1.612199      3.186463      2.523738
  H       0.145299      4.172085      1.349964
  H       0.834810      2.743848      0.616843
  H       1.856988      4.149524      2.737148
  H       1.352567      2.771627      3.415265
  Cu      3.064582      2.241015      1.620092
18
Coordinates from ORCA-job orca_IRC_B E -1967.183671745148
  C      -3.057861      1.841789      1.682814
  C      -1.944836      2.629492      1.428709
  C      -0.705785      2.318297      1.986466
  C      -0.598918      1.204558      2.819056
  C      -1.719728      0.420252      3.086603
  C      -2.947820      0.732504      2.516705
  H      -4.007376      2.095335      1.228617
  H      -3.813327      0.117574      2.716663
  H      -2.024691      3.493377      0.778197
  H       0.352268      0.920296      3.256215
  H      -1.626945     -0.443872      3.733217
  C       0.463599      3.154610      1.556140
  N       1.613718      3.182231      2.517565
  H       0.142899      4.174821      1.356369
  H       0.830443      2.752246      0.610639
  H       1.861688      4.145338      2.730520
  H       1.353020      2.769053      3.410157
  Cu      3.083865      2.239736      1.643818
18
Coordinates from ORCA-job orca_IRC_B E -1967.184137744358
  C      -3.060234      1.842786      1.682634
  C      -1.948461      2.629256      1.427842
  C      -0.709134      2.317477      1.983679
  C      -0.599344      1.204172      2.817893
  C      -1.718378      0.421255      3.086421
  C      -2.947709      0.732218      2.517612
  H      -4.009720      2.094008      1.231574
  H      -3.815078      0.115403      2.718615
  H      -2.029912      3.493043      0.778628
  H       0.350659      0.922152      3.253648
  H      -1.626188     -0.442482      3.733433
  C       0.464537      3.156369      1.554562
  N       1.614266      3.178918      2.512237
  H       0.140130      4.178472      1.362257
  H       0.826594      2.760060      0.603351
  H       1.865766      4.140186      2.723770
  H       1.353110      2.767296      3.404507
  Cu      3.101758      2.238206      1.666934
18
Coordinates from ORCA-job orca_IRC_B E -1967.184248779938
  C      -3.060638      1.841941      1.683402
  C      -1.948688      2.629150      1.427779
  C      -0.708564      2.317874      1.982917
  C      -0.599695      1.204825      2.816987
  C      -1.719138      0.421172      3.086272
  C      -2.948331      0.731949      2.517799
  H      -4.010782      2.093896      1.232009
  H      -3.814607      0.115504      2.718931
  H      -2.031069      3.493307      0.778447
  H       0.350963      0.922404      3.253280
  H      -1.625925     -0.442326      3.733624
  C       0.463319      3.156541      1.553312
  N       1.614727      3.177846      2.510904
  H       0.139769      4.178818      1.363750
  H       0.825712      2.762034      0.602264
  H       1.866802      4.139500      2.722396
  H       1.352927      2.766841      3.403649
  Cu      3.105567      2.237796      1.672116
18
Coordinates from ORCA-job orca_IRC_B E -1967.184459665069
  C      -3.061613      1.840950      1.684452
  C      -1.949927      2.629243      1.427201
  C      -0.708562      2.317778      1.981549
  C      -0.600156      1.205724      2.815391
  C      -1.719473      0.421071      3.086254
  C      -2.949075      0.731957      2.517960
  H      -4.012596      2.093501      1.233272
  H      -3.814550      0.115045      2.719882
  H      -2.033634      3.493369      0.778403
  H       0.350988      0.923092      3.252160
  H      -1.625396     -0.441705      3.733839
  C       0.462257      3.157241      1.551535
  N       1.615277      3.175802      2.508177
  H       0.138724      4.180064      1.366912
  H       0.823892      2.766234      0.599251
  H       1.868951      4.137468      2.719168
  H       1.352585      2.766053      3.401317
  Cu      3.113985      2.236814      1.683628
18
Coordinates from ORCA-job orca_IRC_B E -1967.184672647233
  C      -3.062847      1.840907      1.684823
  C      -1.951585      2.629175      1.426554
  C      -0.709643      2.317400      1.979817
  C      -0.600391      1.205922      2.814143
  C      -1.719039      0.421364      3.086135
  C      -2.949349      0.731822      2.518420
  H      -4.014146      2.092931      1.234994
  H      -3.815010      0.114229      2.721105
  H      -2.036505      3.493222      0.778449
  H       0.350564      0.923974      3.250593
  H      -1.624794     -0.440912      3.734010
  C       0.462150      3.158122      1.550251
  N       1.615666      3.173812      2.505283
  H       0.137392      4.181804      1.370348
  H       0.822054      2.770840      0.595520
  H       1.871247      4.134851      2.715430
  H       1.352117      2.765380      3.398529
  Cu      3.123125      2.235578      1.696434
18
Coordinates from ORCA-job orca_IRC_B E -1967.184867502968
  C      -3.064001      1.840289      1.685637
  C      -1.952754      2.628878      1.426101
  C      -0.709789      2.317638      1.977769
  C      -0.600756      1.206439      2.812512
  C      -1.719431      0.421570      3.085793
  C      -2.949995      0.731297      2.519087
  H      -4.016060      2.092507      1.236613
  H      -3.814790      0.113921      2.722276
  H      -2.039355      3.493393      0.778194
  H       0.350672      0.924730      3.249089
  H      -1.624074     -0.440275      3.734319
  C       0.460996      3.158819      1.548304
  N       1.616335      3.171602      2.502313
  H       0.136254      4.183198      1.373898
  H       0.820298      2.775643      0.592234
  H       1.873653      4.132598      2.711779
  H       1.351411      2.764748      3.396121
  Cu      3.131849      2.234170      1.709140
18
Coordinates from ORCA-job orca_IRC_B E -1967.185047583782
  C      -3.065136      1.840194      1.686099
  C      -1.954358      2.628727      1.425348
  C      -0.710697      2.317258      1.975794
  C      -0.600877      1.206599      2.811030
  C      -1.718977      0.421859      3.085573
  C      -2.950170      0.731200      2.519615
  H      -4.017692      2.092022      1.238492
  H      -3.815171      0.113216      2.723713
  H      -2.042223      3.493223      0.778103
  H       0.350455      0.925540      3.247268
  H      -1.623309     -0.439480      3.734523
  C       0.460859      3.159697      1.546992
  N       1.616662      3.169585      2.499507
  H       0.134967      4.184911      1.377398
  H       0.818704      2.780466      0.588506
  H       1.876025      4.130017      2.707941
  H       1.350615      2.764391      3.393473
  Cu      3.140351      2.232500      1.721971
18
Coordinates from ORCA-job orca_IRC_B E -1967.185212849186
  C      -3.066281      1.839613      1.686917
  C      -1.955515      2.628401      1.424722
  C      -0.710859      2.317339      1.973543
  C      -0.601075      1.206994      2.809200
  C      -1.719133      0.422051      3.085183
  C      -2.950681      0.730774      2.520329
  H      -4.019570      2.091653      1.240344
  H      -3.814943      0.112980      2.725147
  H      -2.045075      3.493298      0.777743
  H       0.350687      0.926240      3.245423
  H      -1.622414     -0.438778      3.734810
  C       0.459863      3.160489      1.545001
  N       1.617229      3.167393      2.496620
  H       0.133839      4.186318      1.381005
  H       0.817129      2.785543      0.585129
  H       1.878525      4.127732      2.704129
  H       1.349565      2.764114      3.391202
  Cu      3.148435      2.230542      1.734837
18
Coordinates from ORCA-job orca_IRC_B E -1967.185364223059
  C      -3.067379      1.839505      1.687422
  C      -1.957010      2.628238      1.423795
  C      -0.711686      2.316836      1.971356
  C      -0.601008      1.207119      2.807439
  C      -1.718531      0.422293      3.084897
  C      -2.950725      0.730739      2.520933
  H      -4.021181      2.091250      1.242425
  H      -3.815248      0.112414      2.726853
  H      -2.047893      3.493029      0.777524
  H       0.350682      0.926948      3.243264
  H      -1.621456     -0.437946      3.734986
  C       0.459777      3.161407      1.543685
  N       1.617425      3.165417      2.493947
  H       0.132567      4.188046      1.384505
  H       0.815711      2.790616      0.581296
  H       1.880986      4.125169      2.700157
  H       1.348397      2.764179      3.388739
  Cu      3.156099      2.228201      1.747744
18
Coordinates from ORCA-job orca_IRC_B E -1967.185500666020
  C      -3.068427      1.838732      1.688415
  C      -1.957958      2.627803      1.423081
  C      -0.711534      2.316985      1.968852
  C      -0.601018      1.207476      2.805329
  C      -1.718740      0.422415      3.084385
  C      -2.951167      0.730354      2.521723
  H      -4.023085      2.091006      1.244408
  H      -3.814785      0.112444      2.728525
  H      -2.050627      3.493114      0.776941
  H       0.351226      0.927515      3.241096
  H      -1.620342     -0.437260      3.735252
  C       0.458564      3.162247      1.541413
  N       1.617932      3.163247      2.491183
  H       0.131500      4.189330      1.388075
  H       0.814278      2.795929      0.578036
  H       1.883580      4.123044      2.696274
  H       1.346918      2.764332      3.386837
  Cu      3.163107      2.225471      1.760546
18
Coordinates from ORCA-job orca_IRC_B E -1967.185616999239
  C      -3.069389      1.838981      1.688669
  C      -1.959515      2.627815      1.421846
  C      -0.712802      2.315960      1.966746
  C      -0.600552      1.207400      2.803533
  C      -1.717499      0.422600      3.084166
  C      -2.950704      0.730723      2.522229
  H      -4.024335      2.090658      1.246638
  H      -3.815452      0.111746      2.730532
  H      -2.053142      3.492490      0.776769
  H       0.351196      0.928092      3.238587
  H      -1.619250     -0.436373      3.735275
  C       0.459237      3.163231      1.540765
  N       1.617664      3.161658      2.488988
  H       0.130160      4.191234      1.391204
  H       0.813191      2.800775      0.574048
  H       1.885906      4.120461      2.692338
  H       1.345449      2.765018      3.384531
  Cu      3.169199      2.222363      1.772663
18
Coordinates from ORCA-job orca_IRC_B E -1967.185652139942
  C      -3.069675      1.838505      1.689124
  C      -1.959523      2.627602      1.421719
  C      -0.712377      2.316229      1.965960
  C      -0.600566      1.207582      2.802807
  C      -1.717844      0.422572      3.083942
  C      -2.950961      0.730492      2.522519
  H      -4.024933      2.090660      1.247144
  H      -3.815017      0.112008      2.730988
  H      -2.053824      3.492644      0.776454
  H       0.351577      0.928176      3.237966
  H      -1.618871     -0.436241      3.735361
  C       0.458473      3.163450      1.539770
  N       1.617901      3.161014      2.488238
  H       0.129946      4.191401      1.392164
  H       0.812820      2.802288      0.573429
  H       1.886663      4.120082      2.691322
  H       1.344879      2.765155      3.384283
  Cu      3.170676      2.221373      1.776030
18
Coordinates from ORCA-job orca_IRC_B E -1967.185705564357
  C      -3.069839      1.838561      1.689364
  C      -1.960141      2.627120      1.421438
  C      -0.712304      2.316374      1.964627
  C      -0.600617      1.207406      2.801891
  C      -1.717502      0.422832      3.083582
  C      -2.951211      0.730143      2.523036
  H      -4.025741      2.090575      1.248131
  H      -3.814735      0.112142      2.731886
  H      -2.054961      3.492675      0.776069
  H       0.351942      0.928370      3.236765
  H      -1.618260     -0.435987      3.735463
  C       0.458053      3.163837      1.538869
  N       1.617976      3.160168      2.487127
  H       0.129419      4.192028      1.393685
  H       0.812292      2.804722      0.571940
  H       1.887861      4.119135      2.689500
  H       1.343960      2.765551      3.383575
  Cu      3.173122      2.219604      1.781721
18
Coordinates from ORCA-job orca_IRC_B E -1967.185763367919
  C      -3.070271      1.838535      1.689641
  C      -1.960809      2.626955      1.420828
  C      -0.712588      2.316062      1.963299
  C      -0.600398      1.207362      2.800732
  C      -1.716971      0.422935      3.083324
  C      -2.951123      0.730170      2.523438
  H      -4.026495      2.090458      1.249357
  H      -3.814743      0.112069      2.733049
  H      -2.056254      3.492449      0.775777
  H       0.352223      0.928591      3.235266
  H      -1.617534     -0.435579      3.735478
  C       0.457997      3.164382      1.538145
  N       1.617870      3.159277      2.485970
  H       0.128734      4.192899      1.395378
  H       0.811751      2.807486      0.570023
  H       1.889222      4.117931      2.687333
  H       1.342872      2.766162      3.382642
  Cu      3.175782      2.217400      1.788289
18
Coordinates from ORCA-job orca_IRC_B E -1967.185818733039
  C      -3.070690      1.838258      1.690099
  C      -1.961255      2.626682      1.420312
  C      -0.712505      2.316010      1.961867
  C      -0.600213      1.207402      2.799453
  C      -1.716751      0.422990      3.082984
  C      -2.951181      0.730050      2.523917
  H      -4.027362      2.090399      1.250524
  H      -3.814462      0.112220      2.734189
  H      -2.057512      3.492373      0.775341
  H       0.352709      0.928759      3.233770
  H      -1.616753     -0.435232      3.735512
  C       0.457508      3.164896      1.537082
  N       1.617880      3.158324      2.484795
  H       0.128111      4.193610      1.397076
  H       0.811209      2.810303      0.568347
  H       1.890637      4.116902      2.685199
  H       1.341659      2.766829      3.381935
  Cu      3.178162      2.215024      1.794795
