18
Coordinates from ORCA-job orca E -1967.169378567651
  C      -2.781600      1.622250      1.415630
  C      -1.618540      2.388350      1.293080
  C      -0.565840      2.241090      2.211060
  C      -0.700740      1.305210      3.258090
  C      -1.866820      0.541780      3.376250
  C      -2.905890      0.699930      2.456650
  H      -3.586780      1.743900      0.702600
  H      -3.806810      0.107370      2.550290
  H      -1.539150      3.098870      0.479430
  H       0.085210      1.155620      3.985720
  H      -1.964310     -0.174370      4.182090
  C       0.666250      3.095850      2.021630
  N       1.695080      2.846550      3.026190
  H       1.356820      3.192240      3.953900
  H       2.537750      3.408140      2.768610
  H       0.379300      4.170820      2.046800
  H       0.972118      2.969356      0.955485
  Cu      3.283918      1.514932      3.211224
18
Coordinates from ORCA-job orca E -1967.176764499839
  C      -2.775072      1.615069      1.420073
  C      -1.624162      2.386958      1.298778
  C      -0.573774      2.252034      2.210837
  C      -0.696969      1.322864      3.247032
  C      -1.850251      0.548874      3.368266
  C      -2.890737      0.693077      2.456872
  H      -3.580252      1.730828      0.705916
  H      -3.785246      0.090863      2.552336
  H      -1.547144      3.099466      0.485643
  H       0.097206      1.185346      3.967919
  H      -1.934811     -0.167691      4.175267
  C       0.652641      3.116406      2.024483
  N       1.696776      2.872381      3.019335
  H       1.383376      3.208151      3.923047
  H       2.534363      3.401648      2.778379
  H       0.362644      4.175312      2.047623
  H       1.008869      2.965344      1.001890
  Cu      3.162509      1.430958      3.211034
18
Coordinates from ORCA-job orca E -1967.182585198044
  C      -2.763308      1.603090      1.423958
  C      -1.628620      2.387677      1.303724
  C      -0.577592      2.267873      2.209723
  C      -0.684692      1.344088      3.236762
  C      -1.822984      0.554010      3.362424
  C      -2.866052      0.679313      2.458494
  H      -3.569200      1.709999      0.708788
  H      -3.751350      0.063904      2.556325
  H      -1.556438      3.104261      0.492621
  H       0.119439      1.225621      3.950539
  H      -1.890457     -0.162157      4.171894
  C       0.638208      3.146660      2.021908
  N       1.702951      2.909445      3.005800
  H       1.413120      3.235739      3.909251
  H       2.550009      3.398455      2.781532
  H       0.341181      4.192745      2.052349
  H       1.060948      2.967693      1.043729
  Cu      2.924803      1.299472      3.204907
18
Coordinates from ORCA-job orca E -1967.186438621002
  C      -2.750701      1.593970      1.426566
  C      -1.624967      2.387487      1.306500
  C      -0.569739      2.273149      2.208435
  C      -0.669794      1.351178      3.234765
  C      -1.800892      0.550941      3.361611
  C      -2.845073      0.666177      2.459862
  H      -3.557720      1.697088      0.711916
  H      -3.725203      0.043722      2.558348
  H      -1.556015      3.109045      0.499246
  H       0.136551      1.247722      3.948619
  H      -1.859550     -0.163551      4.173490
  C       0.633192      3.167590      2.016406
  N       1.717559      2.941569      2.992158
  H       1.444105      3.258823      3.907157
  H       2.576847      3.412265      2.772521
  H       0.323301      4.207281      2.061204
  H       1.099506      2.978385      1.059589
  Cu      2.668557      1.205047      3.196335
18
Coordinates from ORCA-job orca E -1967.189334573682
  C      -2.726640      1.572546      1.412586
  C      -1.605442      2.375878      1.301842
  C      -0.557981      2.274158      2.219247
  C      -0.673081      1.365382      3.261966
  C      -1.802596      0.558517      3.379676
  C      -2.830861      0.654182      2.456103
  H      -3.522588      1.661489      0.683847
  H      -3.708689      0.027761      2.547377
  H      -1.527177      3.090137      0.489476
  H       0.111528      1.289889      4.004223
  H      -1.872853     -0.140121      4.204193
  C       0.630030      3.186444      2.028018
  N       1.745373      2.946365      2.975298
  H       1.501139      3.214565      3.922481
  H       2.591464      3.450974      2.747632
  H       0.304756      4.221702      2.119378
  H       1.091305      3.031106      1.055895
  Cu      2.492277      1.146912      3.085491
18
Coordinates from ORCA-job orca E -1967.190995500995
  C      -2.705787      1.554209      1.397133
  C      -1.583748      2.361855      1.291620
  C      -0.551587      2.280572      2.232785
  C      -0.684161      1.386504      3.293106
  C      -1.811347      0.572196      3.399403
  C      -2.822646      0.649975      2.452947
  H      -3.490122      1.627124      0.654403
  H      -3.698105      0.019228      2.535975
  H      -1.495000      3.062331      0.469175
  H       0.077595      1.329771      4.061433
  H      -1.894409     -0.114332      4.232486
  C       0.629414      3.199751      2.046088
  N       1.762748      2.928043      2.965898
  H       1.546611      3.153123      3.936697
  H       2.580802      3.480310      2.722284
  H       0.301700      4.234292      2.180841
  H       1.045782      3.090648      1.043272
  Cu      2.432224      1.112286      2.979182
18
Coordinates from ORCA-job orca E -1967.191839768689
  C      -2.683737      1.533912      1.382966
  C      -1.566024      2.350705      1.280132
  C      -0.551482      2.299087      2.243406
  C      -0.689923      1.417750      3.315725
  C      -1.810315      0.592725      3.416587
  C      -2.807714      0.647216      2.452363
  H      -3.457327      1.584423      0.627359
  H      -3.677071      0.007298      2.530341
  H      -1.470539      3.033769      0.444288
  H       0.059343      1.373844      4.097039
  H      -1.898446     -0.085169      4.255934
  C       0.626574      3.221309      2.067813
  N       1.769424      2.900659      2.955946
  H       1.573704      3.098578      3.937191
  H       2.569726      3.477520      2.703977
  H       0.309488      4.254882      2.245708
  H       0.992342      3.160008      1.041447
  Cu      2.351943      1.059371      2.896504
18
Coordinates from ORCA-job orca E -1967.192389844791
  C      -2.656159      1.503284      1.363346
  C      -1.545806      2.331827      1.269927
  C      -0.556616      2.315569      2.258839
  C      -0.711806      1.457480      3.347867
  C      -1.823472      0.620057      3.439126
  C      -2.796170      0.640280      2.448769
  H      -3.410480      1.524558      0.587199
  H      -3.659274     -0.009061      2.519298
  H      -1.437246      2.992957      0.418219
  H       0.014328      1.439010      4.151459
  H      -1.925528     -0.040259      4.290770
  C       0.619033      3.246727      2.102908
  N       1.787478      2.870487      2.930435
  H       1.617739      3.029267      3.922074
  H       2.569385      3.471665      2.680111
  H       0.314934      4.271516      2.344088
  H       0.931942      3.251798      1.058650
  Cu      2.307682      1.010727      2.761644
18
Coordinates from ORCA-job orca E -1967.192829605991
  C      -2.624271      1.468528      1.343634
  C      -1.522224      2.308665      1.257243
  C      -0.563722      2.335243      2.272773
  C      -0.734018      1.501980      3.377814
  C      -1.835187      0.651437      3.462015
  C      -2.781945      0.632938      2.446847
  H      -3.357255      1.457752      0.547076
  H      -3.637761     -0.026661      2.511807
  H      -1.399429      2.946287      0.389527
  H      -0.028712      1.512211      4.199483
  H      -1.950771      0.010670      4.326825
  C       0.606129      3.278288      2.141853
  N       1.800835      2.839113      2.897965
  H       1.656078      2.960762      3.897309
  H       2.577147      3.449091      2.656768
  H       0.317531      4.285890      2.459822
  H       0.875965      3.355037      1.089670
  Cu      2.241575      0.960660      2.616299
18
Coordinates from ORCA-job orca E -1967.193251390179
  C      -2.577737      1.423452      1.320306
  C      -1.491223      2.284905      1.247808
  C      -0.574031      2.364690      2.295148
  C      -0.764986      1.559883      3.418187
  C      -1.848399      0.687409      3.488597
  C      -2.757646      0.617791      2.441263
  H      -3.279581      1.371452      0.497700
  H      -3.600534     -0.059189      2.495439
  H      -1.348922      2.896346      0.364318
  H      -0.087205      1.608709      4.261475
  H      -1.980829      0.068046      4.366566
  C       0.587289      3.321325      2.191743
  N       1.814337      2.803744      2.845922
  H       1.715014      2.892352      3.853186
  H       2.597524      3.402429      2.601251
  H       0.325328      4.296627      2.612825
  H       0.811525      3.485314      1.139938
  Cu      2.100041      0.902604      2.453056
18
Coordinates from ORCA-job orca E -1967.193503199073
  C      -2.541716      1.390404      1.303486
  C      -1.469228      2.271181      1.244763
  C      -0.583885      2.387567      2.314838
  C      -0.793130      1.601343      3.449526
  C      -1.860918      0.710207      3.505939
  C      -2.738606      0.603065      2.433979
  H      -3.218671      1.310329      0.462453
  H      -3.570195     -0.088408      2.477755
  H      -1.312715      2.868785      0.354372
  H      -0.138007      1.681541      4.308639
  H      -2.007674      0.105270      4.391689
  C       0.572140      3.352103      2.229169
  N       1.821443      2.779723      2.802469
  H       1.773266      2.855749      3.814854
  H       2.611667      3.357491      2.532821
  H       0.335302      4.295230      2.728826
  H       0.766872      3.579149      1.183336
  Cu      1.994019      0.867159      2.355814
18
Coordinates from ORCA-job orca E -1967.193829652742
  C      -2.489341      1.345744      1.281763
  C      -1.433613      2.249506      1.242163
  C      -0.594648      2.412433      2.343150
  C      -0.834012      1.650599      3.491384
  C      -1.884249      0.739749      3.528919
  C      -2.715503      0.585253      2.424318
  H      -3.130564      1.230827      0.417113
  H      -3.534341     -0.121907      2.454179
  H      -1.254721      2.830528      0.345315
  H      -0.212634      1.773802      4.370519
  H      -2.056869      0.157135      4.424900
  C       0.551660      3.388860      2.283200
  N       1.828280      2.753219      2.738777
  H       1.866700      2.806380      3.753992
  H       2.618888      3.305649      2.418185
  H       0.350811      4.275683      2.888535
  H       0.705306      3.705461      1.254010
  Cu      1.858815      0.838966      2.234307
18
Coordinates from ORCA-job orca E -1967.194099553994
  C      -2.429932      1.300643      1.262713
  C      -1.391275      2.226504      1.242256
  C      -0.604688      2.436904      2.374122
  C      -0.878259      1.701042      3.533934
  C      -1.910716      0.771241      3.552282
  C      -2.690256      0.569400      2.416254
  H      -3.031710      1.149890      0.375554
  H      -3.496857     -0.152104      2.432325
  H      -1.185875      2.789385      0.339743
  H      -0.293040      1.867411      4.431147
  H      -2.113356      0.212009      4.456793
  C       0.533942      3.420486      2.340534
  N       1.827352      2.729321      2.670023
  H       1.958055      2.743462      3.679479
  H       2.608907      3.262185      2.294647
  H       0.376128      4.239205      3.045051
  H       0.642573      3.830845      1.339085
  Cu      1.718971      0.830061      2.108785
18
Coordinates from ORCA-job orca E -1967.194367447881
  C      -2.355732      1.248190      1.246563
  C      -1.337432      2.198328      1.248672
  C      -0.617612      2.463562      2.414247
  C      -0.940059      1.762916      3.585089
  C      -1.951554      0.811724      3.580664
  C      -2.662114      0.552734      2.410078
  H      -2.906861      1.054773      0.335178
  H      -3.453636     -0.185507      2.409211
  H      -1.096624      2.738099      0.340886
  H      -0.399761      1.975879      4.500639
  H      -2.193210      0.279385      4.491750
  C       0.520795      3.446381      2.409993
  N       1.822494      2.706774      2.585210
  H       2.056715      2.655365      3.574861
  H       2.581078      3.230976      2.153325
  H       0.419346      4.179347      3.211839
  H       0.574789      3.963574      1.454659
  Cu      1.579341      0.845388      1.941866
18
Coordinates from ORCA-job orca E -1967.194699819872
  C      -2.281034      1.195318      1.239723
  C      -1.277592      2.161792      1.261779
  C      -0.626590      2.478795      2.456406
  C      -1.008395      1.821952      3.634544
  C      -2.005452      0.856635      3.610325
  C      -2.642621      0.541303      2.410991
  H      -2.780886      0.961748      0.308461
  H      -3.423296     -0.208341      2.395005
  H      -0.998333      2.677144      0.350640
  H      -0.514461      2.077430      4.565050
  H      -2.292707      0.355004      4.525548
  C       0.516072      3.455891      2.476915
  N       1.816240      2.694469      2.502633
  H       2.135055      2.553065      3.458974
  H       2.544984      3.231990      2.037579
  H       0.467514      4.103288      3.353364
  H       0.517279      4.071135      1.579556
  Cu      1.494191      0.899270      1.727237
18
Coordinates from ORCA-job orca E -1967.195369739241
  C      -2.155573      1.107538      1.244849
  C      -1.163320      2.085124      1.296091
  C      -0.627784      2.483168      2.526093
  C      -1.115303      1.903781      3.703161
  C      -2.103671      0.930830      3.650087
  C      -2.621730      0.530106      2.419220
  H      -2.571821      0.813069      0.290077
  H      -3.395461     -0.226035      2.380989
  H      -0.814046      2.555175      0.384067
  H      -0.701210      2.222564      4.652269
  H      -2.475362      0.486137      4.564265
  C       0.522214      3.450253      2.585887
  N       1.801633      2.695662      2.362704
  H       2.233596      2.401341      3.234555
  H       2.477526      3.280347      1.876647
  H       0.563070      3.953489      3.552401
  H       0.444885      4.204018      1.804583
  Cu      1.342322      1.051320      1.366785
18
Coordinates from ORCA-job orca E -1967.193253957435
  C      -2.022507      1.004580      1.277210
  C      -1.032568      1.982323      1.354892
  C      -0.619187      2.469091      2.605439
  C      -1.220970      1.982590      3.761224
  C      -2.217250      1.015180      3.681132
  C      -2.610280      0.521231      2.441000
  H      -2.353291      0.645506      0.311249
  H      -3.384011     -0.233655      2.382714
  H      -0.615978      2.405601      0.445618
  H      -0.892773      2.358391      4.721319
  H      -2.681804      0.637365      4.582724
  C       0.551054      3.415683      2.681276
  N       1.777016      2.710934      2.231726
  H       2.259161      2.211861      2.970595
  H       2.432396      3.356970      1.805110
  H       0.676104      3.799013      3.694754
  H       0.407122      4.273127      2.024731
  Cu      1.187732      1.372097      0.922016
18
Coordinates from ORCA-job orca E -1967.195658298953
  C      -2.117840      1.062200      1.264091
  C      -1.116785      2.028748      1.324346
  C      -0.621320      2.458844      2.564354
  C      -1.158430      1.927413      3.731862
  C      -2.163530      0.966351      3.670976
  C      -2.635988      0.527414      2.438771
  H      -2.509122      0.748379      0.304948
  H      -3.416589     -0.221166      2.394811
  H      -0.765857      2.499084      0.408184
  H      -0.779575      2.259352      4.689860
  H      -2.573926      0.552987      4.583258
  C       0.540518      3.421023      2.611082
  N       1.812989      2.710724      2.318030
  H       2.234970      2.316017      3.151521
  H       2.487178      3.339677      1.897610
  H       0.598513      3.911614      3.583906
  H       0.421295      4.202136      1.861277
  Cu      1.403465      1.217090      1.095841
18
Coordinates from ORCA-job orca E -1967.195655810181
  C      -2.124221      1.083083      1.249991
  C      -1.131171      2.058195      1.309076
  C      -0.623316      2.477509      2.542532
  C      -1.145014      1.925522      3.717815
  C      -2.133676      0.952854      3.658145
  C      -2.620478      0.527425      2.422787
  H      -2.515597      0.770547      0.290392
  H      -3.393797     -0.228840      2.379019
  H      -0.768069      2.517589      0.396215
  H      -0.756187      2.260407      4.672982
  H      -2.530867      0.528692      4.571434
  C       0.528907      3.439511      2.619070
  N       1.804946      2.703227      2.308694
  H       2.258741      2.383726      3.161095
  H       2.461607      3.317442      1.832683
  H       0.603306      3.889777      3.609438
  H       0.415325      4.234597      1.885035
  Cu      1.309527      1.086624      1.268325
18
Coordinates from ORCA-job orca E -1967.196044174625
  C      -2.128523      1.089000      1.257521
  C      -1.134425      2.060586      1.317273
  C      -0.620784      2.474764      2.550971
  C      -1.129855      1.914802      3.722073
  C      -2.128303      0.948505      3.663204
  C      -2.623425      0.530118      2.431450
  H      -2.522074      0.777664      0.298397
  H      -3.398026     -0.224805      2.387636
  H      -0.772502      2.518250      0.403566
  H      -0.741171      2.236056      4.681329
  H      -2.520382      0.521031      4.577192
  C       0.531191      3.439162      2.596031
  N       1.801342      2.699620      2.326648
  H       2.195186      2.335796      3.189648
  H       2.498872      3.315928      1.918357
  H       0.583846      3.949883      3.558448
  H       0.420236      4.192754      1.818257
  Cu      1.328762      1.148774      1.196729
18
Coordinates from ORCA-job orca E -1967.196138584650
  C      -2.115822      1.072983      1.261333
  C      -1.123815      2.048429      1.323135
  C      -0.623787      2.475164      2.561849
  C      -1.145054      1.925567      3.729593
  C      -2.142548      0.957004      3.667485
  C      -2.622844      0.524913      2.435366
  H      -2.506716      0.760280      0.301665
  H      -3.398428     -0.228680      2.390524
  H      -0.771483      2.517929      0.408402
  H      -0.764219      2.251424      4.689352
  H      -2.542422      0.535266      4.580676
  C       0.535947      3.436213      2.602584
  N       1.801221      2.698418      2.318420
  H       2.196284      2.315358      3.172130
  H       2.498429      3.318230      1.920521
  H       0.595647      3.938975      3.568080
  H       0.424572      4.198685      1.832381
  Cu      1.345006      1.181732      1.131233
18
Coordinates from ORCA-job orca E -1967.196248624934
  C      -2.120412      1.078121      1.261503
  C      -1.132188      2.057420      1.320881
  C      -0.625716      2.482416      2.558080
  C      -1.136758      1.925811      3.726902
  C      -2.129860      0.952256      3.667056
  C      -2.616939      0.522472      2.436883
  H      -2.514876      0.766398      0.302960
  H      -3.389261     -0.234521      2.394040
  H      -0.785778      2.530153      0.405902
  H      -0.752720      2.248463      4.686876
  H      -2.520791      0.525657      4.581890
  C       0.534439      3.442513      2.590963
  N       1.797662      2.689887      2.327437
  H       2.159611      2.297811      3.192721
  H       2.516277      3.308416      1.965151
  H       0.589765      3.962918      3.547510
  H       0.430791      4.187638      1.803210
  Cu      1.336719      1.184059      1.124763
18
Coordinates from ORCA-job orca E -1967.196315789410
  C      -2.117957      1.078563      1.260815
  C      -1.136100      2.064798      1.318829
  C      -0.628815      2.492411      2.555434
  C      -1.134937      1.931806      3.725023
  C      -2.121643      0.951627      3.665980
  C      -2.607270      0.517667      2.436713
  H      -2.511162      0.764740      0.302470
  H      -3.372820     -0.246165      2.394850
  H      -0.797664      2.544349      0.404274
  H      -0.750986      2.257388      4.684314
  H      -2.506796      0.521893      4.581852
  C       0.533172      3.449927      2.586582
  N       1.792823      2.680924      2.327936
  H       2.134246      2.284795      3.200541
  H       2.525677      3.297629      1.988633
  H       0.594172      3.968588      3.543501
  H       0.438315      4.190816      1.794021
  Cu      1.307712      1.176134      1.122963
18
Coordinates from ORCA-job orca E -1967.196328164181
  C      -2.113600      1.076621      1.260662
  C      -1.133393      2.064606      1.319625
  C      -0.629205      2.494168      2.557175
  C      -1.137665      1.934751      3.726087
  C      -2.123176      0.953170      3.665895
  C      -2.604708      0.516394      2.436179
  H      -2.503822      0.761127      0.301652
  H      -3.368300     -0.249346      2.393556
  H      -0.796142      2.546116      0.405501
  H      -0.755803      2.262649      4.685390
  H      -2.510106      0.524198      4.581380
  C       0.533484      3.450705      2.589204
  N       1.791579      2.680277      2.323806
  H       2.135900      2.283480      3.194983
  H       2.523352      3.296869      1.982165
  H       0.598906      3.963390      3.549020
  H       0.438846      4.195556      1.800411
  Cu      1.293819      1.173156      1.122037
18
Coordinates from ORCA-job orca E -1967.196335992149
  C      -2.108087      1.074631      1.260486
  C      -1.129204      2.063916      1.321146
  C      -0.629095      2.495299      2.560324
  C      -1.140809      1.937284      3.727958
  C      -2.125824      0.954807      3.665806
  C      -2.602424      0.515475      2.435383
  H      -2.494551      0.757518      0.300481
  H      -3.364456     -0.251731      2.391433
  H      -0.792127      2.546805      0.407608
  H      -0.761575      2.266967      4.687649
  H      -2.515786      0.526921      4.580500
  C       0.534204      3.450939      2.592735
  N       1.790582      2.680814      2.318797
  H       2.140792      2.283390      3.187213
  H       2.519347      3.297420      1.971362
  H       0.603974      3.958174      3.555168
  H       0.438122      4.200162      1.808264
  Cu      1.276884      1.169097      1.122415
18
Coordinates from ORCA-job orca E -1967.196344606054
  C      -2.105896      1.074180      1.260298
  C      -1.127099      2.063478      1.321977
  C      -0.628506      2.495060      2.562132
  C      -1.141752      1.937478      3.728971
  C      -2.127116      0.955111      3.665638
  C      -2.601968      0.515425      2.434847
  H      -2.491031      0.756921      0.299806
  H      -3.363991     -0.251740      2.390102
  H      -0.789568      2.546550      0.408736
  H      -0.763669      2.267111      4.689127
  H      -2.518648      0.527630      4.579845
  C       0.534816      3.450723      2.594225
  N       1.790838      2.682047      2.317185
  H       2.145039      2.284756      3.183934
  H       2.517397      3.298670      1.965343
  H       0.605224      3.957355      3.556982
  H       0.436913      4.201095      1.811033
  Cu      1.268984      1.166037      1.124547
18
Coordinates from ORCA-job orca E -1967.196347639175
  C      -2.105993      1.074766      1.259974
  C      -1.126644      2.063470      1.322090
  C      -0.627726      2.494293      2.562634
  C      -1.141093      1.936260      3.729124
  C      -2.127066      0.954465      3.665267
  C      -2.602413      0.515779      2.434360
  H      -2.491565      0.758328      0.299389
  H      -3.365205     -0.250597      2.389260
  H      -0.788731      2.546397      0.408969
  H      -0.763094      2.264772      4.689710
  H      -2.518786      0.526756      4.579285
  C       0.535288      3.450564      2.594283
  N       1.791809      2.683555      2.318185
  H       2.148631      2.287231      3.184224
  H       2.517096      3.299711      1.962684
  H       0.603828      3.959395      3.556057
  H       0.435908      4.199929      1.810255
  Cu      1.265721      1.162814      1.128976
18
Coordinates from ORCA-job orca E -1967.196348126781
  C      -2.107241      1.075520      1.259749
  C      -1.127606      2.063994      1.321586
  C      -0.627506      2.494139      2.561840
  C      -1.139930      1.935335      3.728534
  C      -2.125942      0.953713      3.664973
  C      -2.602682      0.515931      2.434197
  H      -2.493941      0.759769      0.299394
  H      -3.365862     -0.250067      2.389294
  H      -0.789997      2.547034      0.408416
  H      -0.761337      2.262993      4.689186
  H      -2.516673      0.525453      4.579160
  C       0.535349      3.450803      2.593395
  N       1.792292      2.683925      2.320276
  H       2.148748      2.288184      3.186730
  H       2.518198      3.299230      1.964284
  H       0.601849      3.961824      3.554160
  H       0.436223      4.198501      1.807729
  Cu      1.266023      1.161607      1.131823
18
Coordinates from ORCA-job orca E -1967.196347466811
  C      -2.108116      1.075895      1.259655
  C      -1.128506      2.064490      1.321106
  C      -0.627601      2.494387      2.561002
  C      -1.139175      1.935073      3.727977
  C      -2.124961      0.953340      3.664835
  C      -2.602597      0.515865      2.434207
  H      -2.495545      0.760369      0.299525
  H      -3.365735     -0.250186      2.389586
  H      -0.791421      2.547809      0.407871
  H      -0.760099      2.262429      4.688542
  H      -2.514796      0.524705      4.579232
  C       0.535288      3.451118      2.592661
  N       1.792312      2.683708      2.321828
  H       2.147577      2.287904      3.188757
  H       2.519230      3.298293      1.966555
  H       0.600623      3.963252      3.552911
  H       0.436995      4.197753      1.805886
  Cu      1.266492      1.161685      1.132593
18
Coordinates from ORCA-job orca E -1967.196342134942
  C      -2.108345      1.075928      1.259631
  C      -1.128876      2.064732      1.320864
  C      -0.627721      2.494640      2.560584
  C      -1.138932      1.935182      3.727715
  C      -2.124501      0.953272      3.664805
  C      -2.602374      0.515734      2.434245
  H      -2.495991      0.760365      0.299600
  H      -3.365337     -0.250503      2.389782
  H      -0.792184      2.548303      0.407600
  H      -0.759678      2.262589      4.688189
  H      -2.513970      0.524528      4.579309
  C       0.535255      3.451298      2.592378
  N       1.792198      2.683441      2.322463
  H       2.146668      2.287340      3.189580
  H       2.519693      3.297677      1.967776
  H       0.600254      3.963658      3.552530
  H       0.437573      4.197624      1.805243
  Cu      1.266233      1.162080      1.132434
