18
Coordinates from ORCA-job orca E -1967.196342134942
  C          -2.10834483230926      1.07592754706379      1.25963124769781
  C          -1.12887623436197      2.06473209539505      1.32086402278968
  C          -0.62772074399387      2.49464040695289      2.56058363979922
  C          -1.13893203160201      1.93518212173790      3.72771500216189
  C          -2.12450133872358      0.95327239343630      3.66480520582486
  C          -2.60237420055530      0.51573400020726      2.43424454186771
  H          -2.49599132422419      0.76036535624128      0.29959985642995
  H          -3.36533701781682     -0.25050289827248      2.38978202402206
  H          -0.79218418557914      2.54830269883396      0.40760006952118
  H          -0.75967800502959      2.26258879272420      4.68818943626455
  H          -2.51396958380241      0.52452775352148      4.57930863655817
  C           0.53525527536547      3.45129826217431      2.59237844950980
  N           1.79219831380637      2.68344058837927      2.32246315774034
  H           2.14666800403472      2.28734016606337      3.18957988905107
  H           2.51969320394033      3.29767688608973      1.96777582806549
  H           0.60025420566735      3.96365825888537      3.55253038303421
  H           0.43757265414892      4.19762375956535      1.80524309438019
  Cu          1.26623327103499      1.16207982100091      1.13243380528177
