18
Coordinates from ORCA-job orca E -1967.141075620314
  C          -2.94715690228961      1.80125293191537      1.56908357919324
  C          -1.84029511472513      2.62233549202776      1.44240647624200
  C          -0.67982544935710      2.36355019202668      2.18843220135682
  C          -0.64585916968662      1.26206784901740      3.05804889367915
  C          -1.75686868864158      0.44760116684161      3.18079814895624
  C          -2.90686917534910      0.71323611485659      2.43706977042360
  H          -3.84010461983516      2.00603256630224      0.99403631111715
  H          -3.77105982023490      0.06936015256056      2.53603623833390
  H          -1.86022885103554      3.46720786793227      0.76571971696718
  H           0.23974982685148      1.03153192744445      3.63581610935511
  H          -1.73100646854462     -0.39836979852467      3.85439019089707
  C           0.43081282107557      3.27278397134906      2.01584474123665
  N           1.55692245905351      3.26950543474224      2.79057465894282
  H           1.64443455046737      2.62058295506472      3.56340965972031
  H           2.06177437719662      4.14055624772174      2.90786313266791
  H           0.24511341794794      4.19690239253624      1.48206465368258
  H           1.30814217487832      2.25736640755109     -0.42453335166300
  Cu          1.91478463222864      2.49095612863439      0.91597886889098
