18
Coordinates from ORCA-job orca E -1967.127011609854
  C          -2.95344713542248      1.83541427714034      1.60694560009406
  C          -1.81991825391994      2.60685336105017      1.40054058971219
  C          -0.63038369890998      2.30326521379738      2.06989412263379
  C          -0.58569207054702      1.20448921917503      2.93396469442220
  C          -1.72096173951137      0.43444170222382      3.13575570891890
  C          -2.90638073447667      0.74843676133147      2.47509871348883
  H          -3.87299594837881      2.08183118378188      1.09271027876764
  H          -3.79024724949250      0.14490458737047      2.63554522894045
  H          -1.85130241194829      3.45130717057005      0.72321668091751
  H           0.33127535601313      0.93252290351326      3.44241366891342
  H          -1.68184051052522     -0.41374140502849      3.80637604905320
  C           0.52137618445534      3.18513555729818      1.85374414147562
  N           1.51243706211143      3.30461268806376      2.81957030933127
  H           1.45598071554678      2.73929483029468      3.65516991360086
  H           1.94247614826621      4.21082831013921      2.94642044658481
  H           0.32831472921722      4.09397728735674      1.30145660908759
  H           1.03569601228992      2.40315482340244     -0.00937316361022
  Cu          2.10807354523249      2.36773152851903      1.02359040766724
