18
Coordinates from ORCA-job orca E -1967.136307406751
  C          -2.94419704817674      1.81159848216450      1.57717725089589
  C          -1.82500561542919      2.61214136438646      1.42025568770324
  C          -0.65528729140116      2.33898861771003      2.14191457584976
  C          -0.62063641313083      1.24177360987296      3.01306516149624
  C          -1.74253674661048      0.44451027152786      3.16487821299874
  C          -2.90468517970589      0.72647239110272      2.44863628963797
  H          -3.84623669200361      2.03098165060518      1.02175979135205
  H          -3.77758684115836      0.09832992770502      2.56979406392364
  H          -1.84656068238907      3.45366502769045      0.73925580089327
  H           0.27608903620519      0.99519090520219      3.56710986813570
  H          -1.71315082324501     -0.40063562955567      3.83954716200267
  C           0.47319350109518      3.23702573358603      1.95192408339944
  N           1.54577827078493      3.28367257643766      2.81155109539406
  H           1.57831363800374      2.66981191864479      3.61526014427545
  H           2.02591827930019      4.16709906776259      2.93090183570627
  H           0.28787045585716      4.15327922765632      1.40629803427258
  H           1.13887494901799      2.33037510210322     -0.26394544012092
  Cu          1.97230520298612      2.44017975539734      0.95765638218351
