18
Coordinates from ORCA-job orca E -1967.141511896675
  C          -2.94810037314324      1.80058718049711      1.56844788378350
  C          -1.84354641911548      2.62528695572027      1.44689343771950
  C          -0.68390341078546      2.36779638398328      2.19548176673718
  C          -0.64939164156380      1.26470446400348      3.06377396600571
  C          -1.75832605247479      0.44721767702918      3.18153654685384
  C          -2.90681600883907      0.71100749120906      2.43440768616966
  H          -3.84000402279120      2.00367360196045      0.99123235546052
  H          -3.76934448534601      0.06433596372376      2.52957614261618
  H          -1.86390929586853      3.47167447198275      0.77216384951561
  H           0.23468335974523      1.03653160113742      3.64473139497267
  H          -1.73257951765101     -0.39969085461900      3.85392294097146
  C           0.42354234757329      3.27877469837954      2.02551511868909
  N           1.55812496604425      3.26878485937666      2.78610092884190
  H           1.65508496432830      2.61532773030038      3.55418204153112
  H           2.06739608241057      4.13775092773203      2.90100222884443
  H           0.23848282836024      4.20296548722646      1.49148843044756
  H           1.33503895362183      2.24144919469632     -0.43898376213941
  Cu          1.90602772549496      2.49628216566063      0.91156704297922
