18
Coordinates from ORCA-job orca E -1967.140831381088
  C          -2.94592065862748      1.80067410832873      1.56764769305283
  C          -1.83874830182758      2.62129779559579      1.44052753563998
  C          -0.67848924238182      2.36270304596524      2.18688051281993
  C          -0.64519283922423      1.26209290758589      3.05755542189610
  C          -1.75651800614213      0.44805073633004      3.18076455488251
  C          -2.90623053241340      0.71337612683350      2.43655565371137
  H          -3.83868789308478      2.00530563155602      0.99226039563250
  H          -3.77067748249975      0.06990179046680      2.53590947603949
  H          -1.85827871447403      3.46562149310947      0.76315096556765
  H           0.24015128275637      1.03190057801855      3.63585611019673
  H          -1.73111768823859     -0.39727487854679      3.85519129541856
  C           0.43266235959655      3.27146474169033      2.01384332061486
  N           1.55832417915271      3.26889822764829      2.79085017177098
  H           1.64505718963631      2.62079318634506      3.56439189717898
  H           2.06304959110388      4.13997788148650      2.90803998824406
  H           0.24759245378932      4.19548278373749      1.47975102992372
  H           1.29217260733293      2.26424577539535     -0.41349618312385
  Cu          1.91331169554580      2.48994806845351      0.91736016053330
