18
Coordinates from ORCA-job orca E -1967.135066303710
  C          -2.94732799740238      1.81788757474268      1.58492200945308
  C          -1.82511221783083      2.61279715054788      1.41844482958768
  C          -0.65065887783091      2.33256341569811      2.12857795352992
  C          -0.61306408795258      1.23307435995785      2.99603632609465
  C          -1.73755662810397      0.44080694042971      3.15694410064066
  C          -2.90540142261319      0.73071016047153      2.45352861695407
  H          -3.85365808124419      2.04378545940900      1.03912491667146
  H          -3.78051731435298      0.10713190153587      2.58206308523373
  H          -1.84931125470951      3.45627326045382      0.73991930174428
  H           0.28857818307038      0.97955985048313      3.53911407845541
  H          -1.70540158315198     -0.40667646308526      3.82859080365347
  C           0.48115430787341      3.22852157329081      1.93456351107037
  N           1.53746064198448      3.29181181015026      2.81585342146197
  H           1.55376655689987      2.69041256099221      3.62913439679286
  H           2.01082744159944      4.17897525122197      2.93262445688495
  H           0.29676530718015      4.14022251437134      1.38151587730013
  H           1.12804078979132      2.33228968454194     -0.22389222735906
  Cu          1.99387623679363      2.42431299478676      0.97597454182989
