18
Coordinates from ORCA-job orca E -1967.137086579474
  C          -2.94284785817654      1.80832507658081      1.57331600872119
  C          -1.82551951580418      2.61224772414801      1.42186867901445
  C          -0.65834867130976      2.34287230718101      2.14980449321484
  C          -0.62506832967780      1.24647986460413      3.02261089777007
  C          -1.74536981159892      0.44632004675906      3.16917487058943
  C          -2.90441646472714      0.72407047577405      2.44600333481022
  H          -3.84252525845886      2.02414138834722      1.01276212906699
  H          -3.77597988080697      0.09326753948464      2.56298906487950
  H          -1.84578343527816      3.45304395779478      0.73989779733928
  H           0.26899122669936      1.00371574119969      3.58253909257981
  H          -1.71744653805597     -0.39777126220399      3.84518193736174
  C           0.46778970826711      3.24233923886339      1.96256139607975
  N           1.55002235162676      3.27935232227357      2.80878492090146
  H           1.59193445265151      2.65840240541495      3.60687126248891
  H           2.03426009917357      4.16061000467299      2.92937627598741
  H           0.28197968596961      4.16087124830607      1.42065419614000
  H           1.15060983274102      2.32634088230439     -0.28917762522919
  Cu          1.96017840676549      2.44983103849487      0.94782126828375
