18
Coordinates from ORCA-job orca E -1967.143541968126
  C          -2.98184237462181      1.81607848924469      1.59915090370969
  C          -1.89001424993294      2.65844021249113      1.49369761993701
  C          -0.72003749569214      2.39359159966630      2.22839825192235
  C          -0.66415045554623      1.26479781806190      3.06695906711518
  C          -1.76042287678022      0.43204145711790      3.16765222334611
  C          -2.91806198231195      0.70399127734032      2.43445617333913
  H          -3.88097412158842      2.02240484787814      1.03478747586790
  H          -3.77131062571668      0.04346029035368      2.51758605864206
  H          -1.92607980978395      3.52491734249474      0.84586611572552
  H           0.22680217119773      1.03469417871361      3.63619095085468
  H          -1.72123426884452     -0.43364323602308      3.81475595415971
  C           0.36365111784531      3.31938336637635      2.07455159059686
  N           1.53373748413637      3.28471437863008      2.75637816459746
  H           1.67653950547492      2.61537106677215      3.50515218190803
  H           2.06439912602747      4.14500803012932      2.84743682159855
  H           0.17971532037213      4.23461313930648      1.52423540017945
  H           1.70135317613055      2.07057025226835     -0.53221723303250
  Cu          1.91039035963441      2.50402548917789      0.89800227953274
