18
Coordinates from ORCA-job orca E -1967.143576809622
  C          -2.98662994069883      1.81835914829281      1.60363629100428
  C          -1.89676350275370      2.66338033185995      1.50050413930883
  C          -0.72504392144277      2.39744742482718      2.23261953664802
  C          -0.66601276634627      1.26532760224118      3.06705446196594
  C          -1.76033290307410      0.43012326461217      3.16527310000323
  C          -2.91926519175849      0.70284533707860      2.43406279741489
  H          -3.88683098048953      2.02495602598334      1.04110565154879
  H          -3.77094210711930      0.04004808975407      2.51518358670804
  H          -1.93517656439642      3.53249978547480      0.85638363862112
  H           0.22613122131630      1.03487503725343      3.63423448034243
  H          -1.71892671079717     -0.43826984539988      3.80858426463975
  C           0.35618251051974      3.32444963540332      2.07967751063276
  N           1.53031650015567      3.28655362031016      2.75146141143638
  H           1.67826932751673      2.61591383322130      3.49825325453463
  H           2.06399850243930      4.14552947263957      2.83846177344671
  H           0.17274177870578      4.23831662110052      1.52693149067652
  H           1.74741051548207      2.05049137015958     -0.53607090300309
  Cu          1.91333423274100      2.50161324518788      0.89568351407069
