18
Coordinates from ORCA-job orca E -1967.140585469394
  C          -2.94592192504691      1.80197022193284      1.56896088955536
  C          -1.83737557037934      2.62041335828904      1.43864159911502
  C          -0.67620706156341      2.36031032034251      2.18259511628055
  C          -0.64269360840725      1.25988688541248      3.05313126510727
  C          -1.75520671538340      0.44769429954169      3.17939506908016
  C          -2.90630381124054      0.71492795018736      2.43817859787290
  H          -3.83966648982319      2.00815120511043      0.99562643854881
  H          -3.77173753980771      0.07314224458520      2.53981977115395
  H          -1.85708860563875      3.46440288360593      0.76083717964307
  H           0.24401228660095      1.02760587700551      3.62856062280818
  H          -1.72931753405750     -0.39768133953287      3.85375420607453
  C           0.43665276262592      3.26801023790292      2.00808022369494
  N           1.55697540965295      3.27061244167482      2.79386776207959
  H           1.63772267849767      2.62600281619718      3.57087941113935
  H           2.05850649682540      4.14329098264230      2.91217546710437
  H           0.25045128866120      4.19129302524308      1.47317109410585
  H           1.27970734322383      2.26859536319208     -0.40551744624770
  Cu          1.91995059526020      2.48583122666725      0.92088273288347
