18
Coordinates from ORCA-job orca E -1967.127495117955
  C          -2.95272348658313      1.83413166579929      1.60525483314209
  C          -1.81973802538852      2.60684529337587      1.40115757183781
  C          -0.63121536303919      2.30482861208816      2.07329516011690
  C          -0.58711968985598      1.20625361569261      2.93789022407384
  C          -1.72186632870201      0.43498861980860      3.13729148318445
  C          -2.90616955206564      0.74742506719256      2.47379845539432
  H          -3.87143015446781      2.07920083606471      1.08889747479452
  H          -3.78963291486240      0.14281786431643      2.63239045072885
  H          -1.85052482319304      3.45097858932746      0.72342941915828
  H           0.32891817656320      0.93549170947628      3.44860291956510
  H          -1.68330658939829     -0.41295469281713      3.80823110009623
  C           0.51924424548250      3.18776019271081      1.85888737750407
  N           1.51380914504938      3.30381489046124      2.82017411702114
  H           1.46163211115235      2.73633453801646      3.65465645577597
  H           1.94748554659509      4.20848002904818      2.94626706171161
  H           0.32708083063925      4.09643039650452      1.30591539324069
  H           1.03842614650948      2.40107406849420     -0.02329221479201
  Cu          2.09959072556500      2.37055870443919      1.02019271744552
