18
Coordinates from ORCA-job orca E -1967.130460838332
  C          -2.95079471171442      1.82896554869886      1.59873690661930
  C          -1.82105648757498      2.60877958258194      1.40684573665075
  C          -0.63713187918298      2.31392697645984      2.09183882721771
  C          -0.59509875533040      1.21466577464886      2.95708536393734
  C          -1.72660401804500      0.43647296363037      3.14354395430153
  C          -2.90577925090532      0.74198072339193      2.46715313172182
  H          -3.86566336723536      2.06795145201474      1.07292870808985
  H          -3.78676961529413      0.13129991662924      2.61590194349356
  H          -1.84963043196718      3.45279112648554      0.72899348562833
  H           0.31645423590869      0.94902984702512      3.47808362222609
  H          -1.69007416089841     -0.41167823936374      3.81425475507784
  C           0.50613902572954      3.20221041028963      1.88610508582049
  N           1.52062341429309      3.30137379553850      2.82200493274509
  H           1.49134342810288      2.72403765292465      3.65130943041551
  H           1.97136398910320      4.19887771153930      2.94284428054789
  H           0.31818862188223      4.10975689561758      1.32899094782118
  H           1.07017894838636      2.37644621748737     -0.10150588772315
  Cu          2.05677101474239      2.38757164439979      1.00792477540832
