18
Coordinates from ORCA-job orca E -1967.139755104554
  C          -2.94358683001873      1.80178272416824      1.56751517030870
  C          -1.83320880013279      2.61731944788877      1.43326587333036
  C          -0.67159097356534      2.35646353305227      2.17553194630398
  C          -0.63924168809458      1.25830921920689      3.04829883079189
  C          -1.75343242478769      0.44849202899439      3.17842475058670
  C          -2.90520005000868      0.71648086762450      2.43896408682437
  H          -3.83786549758727      2.00896214515884      0.99532309747605
  H          -3.77191740823628      0.07688839924151      2.54348258208213
  H          -1.85223645619978      3.45964446452644      0.75333554575914
  H           0.24821045299074      1.02511240505241      3.62225982297708
  H          -1.72792553706835     -0.39555148655940      3.85449960908824
  C           0.44446649365976      3.26213083404602      1.99817762534020
  N           1.55764925378095      3.27045514107634      2.79692080926520
  H           1.63065993709999      2.63011933688307      3.57795374839649
  H           2.05638871679387      4.14439297655677      2.91607538100313
  H           0.25938091795946      4.18514778564111      1.46271977341798
  H           1.23732744111620      2.28912802346926     -0.37539817461581
  Cu          1.92458245229863      2.47918215397230      0.92568952166384
