18
Coordinates from ORCA-job orca E -1967.143043733668
  C          -2.96367227456113      1.80730042790245      1.58208098313538
  C          -1.86649274343705      2.64266227692203      1.47175041997339
  C          -0.70306088156219      2.38276594523657      2.21622719755947
  C          -0.65874124187029      1.26690126795861      3.07017905288980
  C          -1.76039623111944      0.44009538493214      3.17626597461651
  C          -2.91167373610219      0.70610960512258      2.43254318370823
  H          -3.85793786106471      2.01075793429050      1.00883467881362
  H          -3.76869329788073      0.05094865659698      2.51909082820814
  H          -1.89415860366590      3.49932459426566      0.81050276322416
  H           0.22728606249020      1.03933744282289      3.64820014671677
  H          -1.72862385160482     -0.41618685466257      3.83629233425880
  C           0.39213810658319      3.30129757315422      2.05485974586186
  N           1.54751166645378      3.27586657243679      2.77088471906332
  H           1.67055305545955      2.61162958568361      3.52686223787843
  H           2.06852231063559      4.13999689847308      2.87483027806244
  H           0.20755230170109      4.22217522296071      1.51448888562446
  H           1.52112144467981      2.14801129422427     -0.50364610849461
  Cu          1.90122577486529      2.50546617167935      0.90279267889966
