18
Coordinates from ORCA-job orca E -1967.132361350994
  C          -2.95023901684537      1.82535750682784      1.59465523914929
  C          -1.82319673005798      2.61070715436927      1.41186882606207
  C          -0.64229312874082      2.32090698805347      2.10535317638831
  C          -0.60149701896251      1.22099036934699      2.97068840176478
  C          -1.73038329695032      0.43744551772246      3.14772284568510
  C          -2.90589643135735      0.73771220086807      2.46233524855913
  H          -3.86241658950169      2.06002234673876      1.06233029495439
  H          -3.78470216173120      0.12216413519103      2.60374435904953
  H          -1.85053236099629      3.45507067835708      0.73447247923616
  H           0.30679588946679      0.95941767030614      3.49910493018559
  H          -1.69511216431056     -0.41100666350230      3.81807656330880
  C           0.49652083558617      3.21235323188866      1.90404084124410
  N           1.52544703626058      3.29891785868027      2.82055823227499
  H           1.51310101427739      2.71367638712184      3.64502234579986
  H           1.98623968906197      4.19202598832650      2.93825984442335
  H           0.31218264216119      4.12051395658873      1.34619376809365
  H           1.09707848788099      2.35701646085415     -0.15040663525669
  Cu          2.03136330475920      2.40116821226059      0.99901923907707
