18
Coordinates from ORCA-job orca E -1967.130911883984
  C          -2.94980270763048      1.82656756157505      1.59568353681558
  C          -1.82117419402107      2.60870131146290      1.40774797837470
  C          -0.63878745896702      2.31653750410188      2.09700319219806
  C          -0.59777837010066      1.21785964972531      2.96332151257541
  C          -1.72825445452172      0.43742045881184      3.14578872385121
  C          -2.90550464995446      0.73996976709794      2.46467166507559
  H          -3.86325676179959      2.06322741025704      1.06639683495033
  H          -3.78560132982915      0.12725720543532      2.61033530713256
  H          -1.84885525226485      3.45226573671061      0.72932306536454
  H           0.31207924507294      0.95452103076118      3.48829118252598
  H          -1.69260842171226     -0.41026279479910      3.81712160643993
  C           0.50294179379827      3.20589141194554      1.89273893795956
  N           1.52373715065292      3.29927020304514      2.82109745073108
  H           1.50201622934766      2.71860034948636      3.64836788441447
  H           1.97982100878680      4.19439291803681      2.94016376865063
  H           0.31770430520637      4.11400413116329      1.33553019896740
  H           1.07179085161529      2.37553962178779     -0.11398766272066
  Cu          2.04399301632124      2.39269652339462      1.00344481669309
