18
Coordinates from ORCA-job orca E -1967.143181008595
  C          -2.96793751934394      1.80939837459396      1.58607138614894
  C          -1.87231443569568      2.64689654410796      1.47753267270647
  C          -0.70738026913010      2.38589122701552      2.21983406574684
  C          -0.66030915546720      1.26685996636701      3.07008127501759
  C          -1.76037675633477      0.43815689855860      3.17420995322561
  C          -2.91294829424078      0.70527295444355      2.43250437565610
  H          -3.86323712947474      2.01335957184898      1.01466389304735
  H          -3.76879727763460      0.04839953993892      2.51765685389708
  H          -1.90204841657789      3.50606350309937      0.81965548364768
  H           0.22680961645074      1.03884809626040      3.64621338602165
  H          -1.72676188022095     -0.42056466971899      3.83093533766317
  C           0.38514529622091      3.30596817892156      2.06002034440158
  N           1.54438838913787      3.27795446137328      2.76725956935117
  H           1.67240016818619      2.61243491880760      3.52147479369777
  H           2.06809943490972      4.14099682531749      2.86782346962781
  H           0.20102244980327      4.22546745281266      1.51710618320694
  H           1.56458351910558      2.12785664582940     -0.51198345121867
  Cu          1.90212226030640      2.50519951042261      0.90198040815475
