18
Coordinates from ORCA-job orca E -1967.142329627138
  C          -2.95303457812431      1.80258919204900      1.57260281867806
  C          -1.85130464716733      2.63149793945757      1.45616291803951
  C          -0.69102934432897      2.37366246678899      2.20465283231196
  C          -0.65348630856201      1.26609393806084      3.06801235384299
  C          -1.75971025053523      0.44493704296426      3.18055930761670
  C          -2.90845016344401      0.70895421452901      2.43326842241182
  H          -3.84515705638487      2.00534728496341      0.99568054458670
  H          -3.76885653359680      0.05888885521657      2.52444206418036
  H          -1.87379859549962      3.48137945609421      0.78595535643786
  H           0.23058544549100      1.03834842527965      3.64907242194920
  H          -1.73220442175829     -0.40519894801002      3.84874346674739
  C           0.41207133460029      3.28716962697132      2.03774455281885
  N           1.55528291103848      3.27106142766756      2.78076294063579
  H           1.66262469026983      2.61275537324820      3.54369054799339
  H           2.06827195534715      4.13852122454841      2.89272406038780
  H           0.22591677345736      4.21070379337577      1.50269662255928
  H           1.40175185756934      2.20594684669974     -0.47034527398169
  Cu          1.90298693162806      2.50180184009532      0.90661404278378
