18
Coordinates from ORCA-job orca E -1967.128543231102
  C          -2.95150042694773      1.83149599977335      1.60199084032851
  C          -1.81967854815166      2.60679623556635      1.40250191996749
  C          -0.63314782299912      2.30813612410046      2.08018615676409
  C          -0.59020826364114      1.21002740631213      2.94578969399240
  C          -1.72383271329712      0.43611445100208      3.14035618381596
  C          -2.90590279344607      0.74524818552791      2.47125868064852
  H          -3.86854136131389      2.07385380551526      1.08144729239646
  H          -3.78845066020805      0.13834128403008      2.62610839346374
  H          -1.84935020983997      3.45034325084299      0.72402366709614
  H           0.32385075752076      0.94168247666429      3.46118338738281
  H          -1.68626171047060     -0.41135004983290      3.81193060367002
  C           0.51512383898055      3.19294894873288      1.86866031997178
  N           1.51653260078218      3.30196120159059      2.82094305803129
  H           1.47317583884351      2.72989386388541      3.65290781377830
  H           1.95729506116567      4.20355100080219      2.94546037401423
  H           0.32475564385246      4.10215618138599      1.31570341625248
  H           1.04570747903150      2.39638152173941     -0.05097147792200
  Cu          2.08289329013895      2.37687811236101      1.01355967634717
