18
Coordinates from ORCA-job orca E -1967.129909532919
  C          -2.95060733138595      1.82880255036545      1.59867084295618
  C          -1.82047334372579      2.60772352134478      1.40533351596310
  C          -0.63631369799101      2.31279753725569      2.08960876180569
  C          -0.59433107320014      1.21434312511567      2.95554905129346
  C          -1.72625809574915      0.43689461030154      3.14356584927984
  C          -2.90573251792860      0.74245489240559      2.46793285149324
  H          -3.86569553484030      2.06802369580855      1.07333048561482
  H          -3.78697310443995      0.13241975230462      2.61784702133630
  H          -1.84902148851255      3.45119140802428      0.72677900432659
  H           0.31748085215482      0.94869610662505      3.47612130780857
  H          -1.68973735211791     -0.41065515878570      3.81504845553665
  C           0.50814899316596      3.20044264825188      1.88267378642574
  N           1.51982663906567      3.30057664224732      2.82166343829780
  H           1.48799848665766      2.72361081220317      3.65102984058820
  H           1.96938794873556      4.19845717587012      2.94345094807132
  H           0.32046019353600      4.10899705752498      1.32733424845984
  H           1.06142123357793      2.38491487515369     -0.08984470460661
  Cu          2.06287919299796      2.38476874798282      1.00694529534871
