18
Coordinates from ORCA-job orca E -1967.142798296545
  C          -2.95991091252122      1.80564589639602      1.57829160850825
  C          -1.86190164940115      2.63992961162131      1.46739441659349
  C          -0.69962439156423      2.38090706369537      2.21365040236779
  C          -0.65741985554200      1.26738366115347      3.07041606613390
  C          -1.75993438950431      0.44152671594824      3.17719451273413
  C          -2.90996796870090      0.70637363391924      2.43136451713820
  H          -3.85323794928411      2.00846581898943      1.00333699193937
  H          -3.76757114258616      0.05202375852140      2.51827633830626
  H          -1.88804708894438      3.49485870713926      0.80382764246455
  H           0.22763427607769      1.04046632910532      3.65020027471350
  H          -1.72954834993849     -0.41308595574289      3.83946036688368
  C           0.39751708207011      3.29798571516194      2.05085009022053
  N           1.55086280990335      3.27437377096934      2.77310416229781
  H           1.67086696752453      2.61176290657680      3.53082475549939
  H           2.07085667428785      4.13884838886574      2.87813737622495
  H           0.21346556359348      4.21924591525159      1.51103038708264
  H           1.48019176241449      2.16367378313846     -0.48910600307893
  Cu          1.89822856211548      2.50407427928981      0.90478609397029
