18
Coordinates from ORCA-job orca E -1967.134194237549
  C          -2.94898344606085      1.82142903405889      1.58943871359990
  C          -1.82490051360140      2.61272119449501      1.41673225802616
  C          -0.64767307110813      2.32830468528355      2.11988413065552
  C          -0.60844060954315      1.22791742761832      2.98566291095427
  C          -1.73456149458667      0.43891603139235      3.15259425662652
  C          -2.90574289301111      0.73344105747335      2.45686416604444
  H          -3.85784372332356      2.05114280332794      1.04943192461050
  H          -3.78226717888904      0.11287634235403      2.59027843363878
  H          -1.85059871615105      3.45708629121446      0.73934094717346
  H           0.29609785505305      0.97064419402682      3.52228990976298
  H          -1.70088892701484     -0.40957014357575      3.82292506648543
  C           0.48640160695557      3.22281992800909      1.92341653802460
  N           1.53226668626272      3.29587802296048      2.81819933579033
  H           1.53784268256168      2.70150441178743      3.63658809158216
  H           2.00116637703210      4.18532377711416      2.93433896203089
  H           0.30230090557323      4.13223818204767      1.36683606875252
  H           1.12019814058275      2.33669773280180     -0.19821356944911
  Cu          2.00808631926888      2.41508902760999      0.98643185569016
