18
Coordinates from ORCA-job orca E -1967.132828304302
  C          -2.95021006002287      1.82495396890813      1.59398977960983
  C          -1.82372448913188      2.61144694251456      1.41314443886022
  C          -0.64346040392394      2.32245156497871      2.10833473591405
  C          -0.60275419714146      1.22206956631001      2.97333434848757
  C          -1.73106468230096      0.43745288108402      3.14832231573401
  C          -2.90592074257443      0.73697150747805      2.46128809063646
  H          -3.86185269117266      2.05886671540826      1.06045194490870
  H          -3.78430566091854      0.12046433880535      2.60115656631661
  H          -1.85084985667211      3.45604368365713      0.73604627063833
  H           0.30497114855203      0.96100119228579      3.50292255365070
  H          -1.69596339028306     -0.41131289134095      3.81826747109997
  C           0.49407754615663      3.21475130976927      1.90847075374115
  N           1.52642149011675      3.29907502798494      2.82058841238148
  H           1.51773620250943      2.71232568036358      3.64415193252395
  H           1.98900739663013      4.19144828820529      2.93759385337389
  H           0.30956299162458      4.12261802886651      1.34998017010093
  H           1.10359355719045      2.35020065334031     -0.16195608353755
  Cu          2.02719584136209      2.40363154138058      0.99695244555917
