18
Coordinates from ORCA-job orca E -1967.137844990024
  C          -2.94249276365117      1.80636548434856      1.57123864047001
  C          -1.82689828310787      2.61327020812394      1.42438269344279
  C          -0.66145696289183      2.34633839279164      2.15649775256655
  C          -0.62870533119608      1.24987821021901      3.02970540831239
  C          -1.74751495394946      0.44727396562739      3.17197483307750
  C          -2.90440423185793      0.72215767840968      2.44400970433312
  H          -3.84055064564299      2.01967755207693      1.00715578419380
  H          -3.77475438199308      0.08908671321593      2.55760166011145
  H          -1.84657802620826      3.45409907686566      0.74253064239156
  H           0.26349618109395      1.00972871607935      3.59358794862905
  H          -1.72041924212543     -0.39652526852051      3.84837111092279
  C           0.46240950667049      3.24707240736621      1.97153205764788
  N           1.55298740340665      3.27650074741142      2.80596635652140
  H           1.60241119986020      2.65046167562925      3.59978081037819
  H           2.03999216292599      4.15622982418095      2.92746863050867
  H           0.27599634766586      4.16717342460287      1.43218164225062
  H           1.16847437290947      2.31749259266352     -0.31245098651591
  Cu          1.95046764809163      2.45817859890788      0.94150531075773
