18
Coordinates from ORCA-job orca E -1967.141778735101
  C          -2.94938755866243      1.80120014462253      1.56993040074021
  C          -1.84514969725511      2.62635411837714      1.44880872315308
  C          -0.68528825303284      2.36867200469461      2.19705462665733
  C          -0.65006436715549      1.26465978928694      3.06422716672943
  C          -1.75866700161087      0.44673769447294      3.18151738563748
  C          -2.90747137662033      0.71087314000478      2.43491614712602
  H          -3.84149022140258      2.00445966264985      0.99309589633729
  H          -3.76973070198772      0.06378408928386      2.52967574073350
  H          -1.86595892376055      3.47332947459242      0.77483382441425
  H           0.23429560922768      1.03613954856232      3.64462260134549
  H          -1.73244263587370     -0.40083650853849      3.85304090374668
  C           0.42164344974972      3.28010390084801      2.02750257169317
  N           1.55671725986377      3.26942304341255      2.78574252213187
  H           1.65447490579633      2.61517525584798      3.55312183723135
  H           2.06611636654250      4.13836888345765      2.90068657447060
  H           0.23590992774048      4.20437575914834      1.49378314721546
  H           1.35138223769689      2.23441986569215     -0.44962389116605
  Cu          1.90757098074433      2.49722013358424      0.91010382180258
