18
Coordinates from ORCA-job orca E -1967.140048790575
  C          -2.94476332319555      1.80243156022472      1.56892102503808
  C          -1.83461443183113      2.61830560623893      1.43498961099091
  C          -0.67280833710528      2.35722650307581      2.17697401722811
  C          -0.63978711749877      1.25813642398270      3.04863182978738
  C          -1.75370117794659      0.44796577860709      3.17833314854368
  C          -2.90580542660576      0.71640863703905      2.43945714363050
  H          -3.83926912348132      2.00986701908675      0.99717219560008
  H          -3.77234068012064      0.07651325580444      2.54368340490370
  H          -1.85405218192247      3.46124045299749      0.75582920575165
  H           0.24791154256477      1.02454399544258      3.62206172454352
  H          -1.72776710911284     -0.39671292368275      3.85360151263652
  C           0.44260760074719      3.26343874330655      2.00026648887981
  N           1.55626535092148      3.27124605728343      2.79687991044653
  H           1.63012877740551      2.63020142095980      3.57730790266041
  H           2.05509299876594      4.14517749397001      2.91606300258336
  H           0.25677653183690      4.18641026958207      1.46488434128048
  H           1.25261133243477      2.28181401808501     -0.38664192424630
  Cu          1.92597477414389      2.48024568799605      0.92462545974124
