15
	Energy:      12.9406666
C        -23.47502       11.79822       -0.76198
C        -22.07835       11.64843       -0.74821
C        -21.52593       10.35974       -0.87728
C        -22.36004        9.24581       -1.01716
C        -23.74784        9.40620       -1.02957
C        -24.30469       10.68114       -0.90211
H        -23.92360       12.77939       -0.66432
H        -20.45334       10.21204       -0.87028
H        -21.92988        8.25749       -1.11600
H        -24.39152        8.54282       -1.13793
H        -25.38000       10.80430       -0.91186
C        -21.22194       12.84578       -0.59873
N        -19.94264       12.75407       -0.58114
H        -21.67805       13.82616       -0.50131
Cu       -18.84707       14.36441       -0.38131
