17
Properties=species:S:1:pos:R:3 Energy:=T 18.1285528=T pbc="F F F"
C        8.82798764      -0.72923719      -0.21980796
C        9.64720764       0.40132281      -0.05602796
C        9.37118764      -2.01621719      -0.16348796
C       10.73913764      -2.18955719       0.05608204
C       11.02826764       0.21373281       0.16385204
C       11.56615764      -1.07620719       0.21909204
H       12.62668764      -1.21243719       0.38803204
H       11.15850764      -3.18639719       0.09917204
H       11.69849764       1.05282281       0.29167204
H        7.76473764      -0.61273719      -0.39123796
H        8.73069764      -2.87946719      -0.29048796
C        9.00217764       1.76893281      -0.12848796
N        9.95429764       2.85972281       0.06699204
H        8.20434764       1.83886281       0.64416204
H        8.53106764       1.88010281      -1.12939796
H       10.30117764       2.83572281       1.05381204
H        9.44922764       3.76619281      -0.06206796
