18
Coordinates from ORCA-job orca E -1967.196379265489
  C          -2.98117017064509      1.80789414960353      1.60757247873730
  C          -1.88542296732951      2.66111345577216      1.50159768339029
  C          -0.72441446565480      2.40807880972680      2.22537144184720
  C          -0.66981224626740      1.27488848549626      3.05384343172659
  C          -1.77048600724582      0.42841835689207      3.16671687684738
  C          -2.92997832455421      0.69934188264661      2.44570527436314
  H          -3.87886310405980      2.01451024281293      1.03902545081612
  H          -3.78516409479847      0.04124384280277      2.52798336991937
  H          -1.93566786964673      3.53087844878614      0.85778557032265
  H           0.25835832530660      1.02315865780676      3.56082655653687
  H          -1.71300997747208     -0.44820462508584      3.79892280398761
  C           0.42322482059132      3.38382771390038      2.23707778909138
  N           0.32052164425565      4.23012610319017      3.46814006852719
  H          -0.29922976834293      5.01769419839338      3.29394114167773
  H           1.22557810371771      4.62368705180249      3.70950061970438
  H           0.42039881236176      4.00869316283524      1.34365920021143
  H           1.37381674118033      2.85481104945868      2.28860543063564
  Cu         -0.53611376105571      3.07733763500877      4.86040385504010
