18
Coordinates from ORCA-job orca E -1967.119905330116
  C      -1.772840     -0.717598     -1.340277
  C      -0.747912      0.214907     -1.230646
  C       0.138917      0.158517     -0.156334
  C      -0.012529     -0.841763      0.810134
  C      -1.023908     -1.780229      0.689004
  C      -1.905689     -1.723067     -0.387130
  H      -2.459711     -0.665862     -2.174203
  H      -2.685210     -2.466133     -0.488036
  H      -0.638486      0.990970     -1.979398
  H       0.683803     -0.910703      1.638247
  H      -1.112633     -2.571609      1.423214
  C       1.218454      1.168396     -0.073617
  N       1.286024      1.966101      1.088791
  H       1.412537      1.712807     -0.987724
  H       2.612833      0.105346     -0.490696
  H       1.598416      2.919140      0.960648
  H       0.536571      1.860885      1.759779
  Cu      2.871364      0.579895      0.938244
18
Coordinates from ORCA-job orca E -1967.120206486095
  C      -1.766696     -0.721181     -1.344530
  C      -0.738325      0.208022     -1.238294
  C       0.146082      0.154634     -0.161563
  C      -0.008806     -0.841163      0.808393
  C      -1.027121     -1.773330      0.693576
  C      -1.907907     -1.717638     -0.383774
  H      -2.451828     -0.671419     -2.180206
  H      -2.693657     -2.455109     -0.479076
  H      -0.624823      0.979560     -1.990757
  H       0.684950     -0.906974      1.639020
  H      -1.123781     -2.556793      1.434801
  C       1.218029      1.172176     -0.075247
  N       1.283140      1.956332      1.096378
  H       1.400565      1.728159     -0.984614
  H       2.602573      0.104024     -0.501471
  H       1.580394      2.915430      0.977367
  H       0.541486      1.831643      1.772519
  Cu      2.885725      0.593628      0.917480
18
Coordinates from ORCA-job orca E -1967.120509236065
  C      -1.760684     -0.726937     -1.349917
  C      -0.728153      0.198336     -1.247064
  C       0.150812      0.149539     -0.165969
  C      -0.011622     -0.838080      0.809925
  C      -1.035736     -1.764655      0.700993
  C      -1.912842     -1.712549     -0.379858
  H      -2.441717     -0.680946     -2.189242
  H      -2.704622     -2.444305     -0.470031
  H      -0.607730      0.963210     -2.005081
  H       0.680894     -0.898043      1.642629
  H      -1.141333     -2.539173      1.450168
  C       1.217280      1.172770     -0.075502
  N       1.282406      1.941501      1.106439
  H       1.387259      1.741862     -0.979039
  H       2.609187      0.129735     -0.527962
  H       1.562403      2.907004      0.998387
  H       0.550709      1.794087      1.788563
  Cu      2.903488      0.606646      0.892561
18
Coordinates from ORCA-job orca E -1967.120872485467
  C      -1.750653     -0.736183     -1.358944
  C      -0.715843      0.186960     -1.259026
  C       0.152626      0.148554     -0.168958
  C      -0.018656     -0.828093      0.815677
  C      -1.046072     -1.751649      0.710707
  C      -1.915586     -1.707606     -0.377082
  H      -2.423950     -0.698601     -2.205011
  H      -2.712040     -2.434948     -0.462710
  H      -0.585877      0.941722     -2.025335
  H       0.670665     -0.879764      1.651581
  H      -1.161889     -2.515522      1.468971
  C       1.212867      1.176890     -0.074510
  N       1.286634      1.923026      1.121570
  H       1.364704      1.763938     -0.969552
  H       2.598728      0.147365     -0.562292
  H       1.544508      2.896117      1.028546
  H       0.573485      1.745279      1.815713
  Cu      2.926350      0.622514      0.850654
18
Coordinates from ORCA-job orca E -1967.121067867698
  C      -1.743838     -0.743451     -1.365390
  C      -0.709118      0.179855     -1.265674
  C       0.151507      0.149185     -0.169030
  C      -0.026012     -0.820561      0.821283
  C      -1.053998     -1.743654      0.716858
  C      -1.916636     -1.706407     -0.376819
  H      -2.411315     -0.711938     -2.216361
  H      -2.714474     -2.432463     -0.461184
  H      -0.573196      0.928500     -2.036806
  H       0.658894     -0.866137      1.661040
  H      -1.176376     -2.501093      1.480400
  C       1.209316      1.179488     -0.072841
  N       1.292867      1.911956      1.131336
  H       1.349493      1.777730     -0.962309
  H       2.591264      0.162548     -0.587698
  H       1.537647      2.889137      1.047015
  H       0.593364      1.716379      1.834353
  Cu      2.940611      0.630926      0.821826
18
Coordinates from ORCA-job orca E -1967.121307397482
  C      -1.733174     -0.755410     -1.375617
  C      -0.700771      0.170396     -1.274654
  C       0.146896      0.152961     -0.167487
  C      -0.039465     -0.806702      0.830966
  C      -1.065619     -1.731836      0.725345
  C      -1.916306     -1.706915     -0.378184
  H      -2.391094     -0.734172     -2.234393
  H      -2.713679     -2.433612     -0.462451
  H      -0.556594      0.910398     -2.052434
  H       0.636956     -0.841920      1.677865
  H      -1.196725     -2.480471      1.495939
  C       1.202516      1.184493     -0.069215
  N       1.305869      1.896768      1.145912
  H       1.326122      1.799128     -0.949826
  H       2.573732      0.181108     -0.625764
  H       1.533512      2.878945      1.073801
  H       0.628601      1.677147      1.863312
  Cu      2.959225      0.639695      0.776885
18
Coordinates from ORCA-job orca E -1967.121584221267
  C      -1.716391     -0.774819     -1.391185
  C      -0.689306      0.156570     -1.287258
  C       0.137700      0.160496     -0.164335
  C      -0.062160     -0.783636      0.846058
  C      -1.083727     -1.713667      0.737809
  C      -1.914543     -1.709658     -0.381197
  H      -2.359112     -0.770105     -2.261715
  H      -2.709197     -2.439334     -0.466557
  H      -0.533179      0.884009     -2.074368
  H       0.599407     -0.801507      1.704861
  H      -1.227706     -2.448971      1.518735
  C       1.191352      1.192341     -0.062806
  N       1.328805      1.873335      1.167353
  H       1.290996      1.832108     -0.928351
  H       2.544584      0.212603     -0.684949
  H       1.532812      2.861734      1.114282
  H       0.686415      1.619542      1.905157
  Cu      2.983250      0.648959      0.708465
18
Coordinates from ORCA-job orca E -1967.121836051567
  C      -1.690690     -0.803201     -1.412255
  C      -0.670894      0.135229     -1.303544
  C       0.125125      0.170119     -0.158942
  C      -0.095628     -0.751904      0.867472
  C      -1.111692     -1.687762      0.755289
  C      -1.912674     -1.713562     -0.385088
  H      -2.310806     -0.821642     -2.298904
  H      -2.703953     -2.446761     -0.472454
  H      -0.496728      0.845015     -2.102813
  H       0.543096     -0.746630      1.743283
  H      -1.276166     -2.403121      1.550458
  C       1.174922      1.203405     -0.053079
  N       1.363405      1.838738      1.195153
  H       1.239014      1.879784     -0.893733
  H       2.503204      0.264785     -0.769615
  H       1.531533      2.834791      1.171458
  H       0.774755      1.535361      1.958581
  Cu      3.014178      0.667358      0.608736
18
Coordinates from ORCA-job orca E -1967.121961873537
  C      -1.667060     -0.826385     -1.427919
  C      -0.651563      0.114737     -1.311868
  C       0.116864      0.174185     -0.148855
  C      -0.127572     -0.730391      0.889236
  C      -1.140914     -1.668796      0.769359
  C      -1.913932     -1.716789     -0.389076
  H      -2.265952     -0.861706     -2.328546
  H      -2.703720     -2.451071     -0.480816
  H      -0.459166      0.810442     -2.119323
  H       0.488382     -0.715550      1.780384
  H      -1.326150     -2.368274      1.573969
  C       1.161385      1.212300     -0.044038
  N       1.396122      1.813228      1.212915
  H       1.189724      1.918214     -0.862216
  H       2.473334      0.314340     -0.841950
  H       1.525013      2.815399      1.212759
  H       0.862326      1.466671      1.997646
  Cu      3.042878      0.699445      0.518341
18
Coordinates from ORCA-job orca E -1967.121987147572
  C      -1.660776     -0.831196     -1.431657
  C      -0.648154      0.112019     -1.311389
  C       0.114442      0.176398     -0.144263
  C      -0.137019     -0.723583      0.895666
  C      -1.147735     -1.664565      0.771708
  C      -1.912394     -1.719239     -0.391643
  H      -2.252926     -0.871195     -2.336521
  H      -2.699397     -2.456135     -0.486340
  H      -0.450754      0.804587     -2.120390
  H       0.469610     -0.707189      1.793022
  H      -1.337064     -2.361069      1.577953
  C       1.157582      1.215728     -0.041634
  N       1.407329      1.808482      1.216199
  H       1.175317      1.927574     -0.854934
  H       2.458559      0.318245     -0.857433
  H       1.526028      2.812004      1.221029
  H       0.888049      1.452899      2.006572
  Cu      3.049302      0.706234      0.494055
18
Coordinates from ORCA-job orca E -1967.122001175174
  C      -1.654152     -0.836908     -1.435500
  C      -0.643944      0.107844     -1.311395
  C       0.112181      0.177900     -0.139814
  C      -0.145902     -0.717537      0.901533
  C      -1.154977     -1.660339      0.774312
  C      -1.911497     -1.721756     -0.393635
  H      -2.240259     -0.880888     -2.344095
  H      -2.696426     -2.460532     -0.490743
  H      -0.441711      0.797381     -2.121853
  H       0.449872     -0.698078      1.806122
  H      -1.349145     -2.352555      1.583109
  C       1.153899      1.218733     -0.038958
  N       1.418714      1.802495      1.219879
  H       1.161307      1.935943     -0.847701
  H       2.447193      0.332519     -0.877324
  H       1.528446      2.807056      1.230580
  H       0.911569      1.438436      2.014296
  Cu      3.054831      0.710287      0.471185
18
Coordinates from ORCA-job orca E -1967.122006638734
  C      -1.650491     -0.840055     -1.437613
  C      -0.641917      0.105935     -1.312273
  C       0.110455      0.179821     -0.138255
  C      -0.150195     -0.712890      0.904215
  C      -1.157867     -1.657395      0.775840
  C      -1.910304     -1.722914     -0.394334
  H      -2.233476     -0.886879     -2.348068
  H      -2.693898     -2.462975     -0.492327
  H      -0.437349      0.793460     -2.123874
  H       0.440948     -0.691058      1.811813
  H      -1.353714     -2.347415      1.586101
  C       1.151294      1.221237     -0.037528
  N       1.424174      1.798401      1.222425
  H       1.153995      1.941690     -0.843339
  H       2.439733      0.338479     -0.887819
  H       1.531457      2.803201      1.237465
  H       0.921458      1.430195      2.017777
  Cu      3.055697      0.709164      0.459793
18
Coordinates from ORCA-job orca E -1967.122012261970
  C      -1.644917     -0.845401     -1.440614
  C      -0.638800      0.102515     -1.313704
  C       0.107691      0.182498     -0.135998
  C      -0.157181     -0.706240      0.908479
  C      -1.162907     -1.653108      0.778551
  C      -1.908878     -1.724795     -0.395042
  H      -2.223143     -0.896731     -2.353849
  H      -2.690783     -2.466461     -0.494289
  H      -0.430666      0.786818     -2.127145
  H       0.427484     -0.680636      1.820058
  H      -1.361643     -2.339640      1.591067
  C       1.147781      1.224796     -0.035573
  N       1.432662      1.791651      1.226268
  H       1.143331      1.950754     -0.836406
  H       2.430687      0.353947     -0.905884
  H       1.537753      2.796626      1.248094
  H       0.934856      1.418042      2.022199
  Cu      3.056673      0.705365      0.443789
18
Coordinates from ORCA-job orca E -1967.122014550381
  C      -1.642924     -0.847360     -1.441648
  C      -0.637705      0.101378     -1.314534
  C       0.106697      0.183675     -0.135635
  C      -0.159385     -0.703632      0.909777
  C      -1.164294     -1.651392      0.779594
  C      -1.908130     -1.725325     -0.395155
  H      -2.219519     -0.900592     -2.355813
  H      -2.689456     -2.467571     -0.494672
  H      -0.428480      0.784474     -2.128711
  H       0.423822     -0.676284      1.822236
  H      -1.363952     -2.336715      1.592896
  C       1.146285      1.226385     -0.035056
  N       1.435219      1.788967      1.227796
  H       1.139332      1.954785     -0.833593
  H       2.427153      0.358922     -0.912080
  H       1.540941      2.793828      1.252312
  H       0.938280      1.413939      2.023626
  Cu      3.056116      0.702518      0.438660
18
Coordinates from ORCA-job orca E -1967.122017360197
  C      -1.639721     -0.850769     -1.443202
  C      -0.635875      0.099250     -1.315619
  C       0.105109      0.185274     -0.134787
  C      -0.163219     -0.699916      0.912100
  C      -1.166877     -1.648938      0.781387
  C      -1.907169     -1.726365     -0.395294
  H      -2.213631     -0.906973     -2.358880
  H      -2.687647     -2.469436     -0.495324
  H      -0.424821      0.780414     -2.130952
  H       0.417617     -0.669783      1.825889
  H      -1.368318     -2.332330      1.595865
  C       1.144008      1.228812     -0.034318
  N       1.439538      1.784631      1.230144
  H       1.132633      1.961252     -0.829071
  H       2.422792      0.371016     -0.923378
  H       1.547733      2.789161      1.258554
  H       0.942965      1.408518      2.025673
  Cu      3.054885      0.696182      0.431212
18
Coordinates from ORCA-job orca E -1967.122018472896
  C      -1.639341     -0.851135     -1.443382
  C      -0.635672      0.099084     -1.315776
  C       0.104985      0.185533     -0.134781
  C      -0.163449     -0.699409      0.912283
  C      -1.166879     -1.648616      0.781562
  C      -1.906886     -1.726481     -0.395307
  H      -2.212995     -0.907698     -2.359199
  H      -2.687215     -2.469714     -0.495312
  H      -0.424511      0.780057     -2.131240
  H       0.417296     -0.668852      1.826134
  H      -1.368468     -2.331857      1.596129
  C       1.143561      1.229277     -0.034291
  N       1.439763      1.784089      1.230453
  H       1.131529      1.962236     -0.828522
  H       2.422089      0.372332     -0.924632
  H       1.549428      2.788446      1.259195
  H       0.942649      1.408481      2.025895
  Cu      3.054117      0.694227      0.430791
18
Coordinates from ORCA-job orca E -1967.122019390229
  C      -1.639694     -0.850818     -1.443179
  C      -0.635908      0.099314     -1.315628
  C       0.105166      0.185389     -0.134873
  C      -0.162969     -0.699862      0.912033
  C      -1.166489     -1.648950      0.781375
  C      -1.906930     -1.726430     -0.395267
  H      -2.213663     -0.907067     -2.358816
  H      -2.687329     -2.469600     -0.495182
  H      -0.425018      0.780514     -2.130972
  H       0.418133     -0.669586      1.825667
  H      -1.367880     -2.332457      1.595770
  C       1.143751      1.229152     -0.034449
  N       1.439173      1.784541      1.230209
  H       1.132048      1.961717     -0.829051
  H       2.422804      0.371993     -0.923736
  H       1.549770      2.788808      1.258398
  H       0.941267      1.409760      2.025537
  Cu      3.053766      0.693582      0.432163
18
Coordinates from ORCA-job orca E -1967.122020130554
  C      -1.639927     -0.850609     -1.443045
  C      -0.636096      0.099504     -1.315573
  C       0.105284      0.185351     -0.135001
  C      -0.162585     -0.700086      0.911819
  C      -1.166140     -1.649130      0.781251
  C      -1.906895     -1.726396     -0.395223
  H      -2.214124     -0.906687     -2.358550
  H      -2.687320     -2.469553     -0.495044
  H      -0.425430      0.780856     -2.130848
  H       0.418793     -0.669937      1.825287
  H      -1.367351     -2.332806      1.595549
  C       1.143849      1.229133     -0.034583
  N       1.438706      1.784780      1.230075
  H       1.132382      1.961454     -0.829405
  H       2.423195      0.371709     -0.923113
  H       1.550193      2.788952      1.257959
  H       0.940075      1.410632      2.025247
  Cu      3.053392      0.692832      0.433197
18
Coordinates from ORCA-job orca E -1967.122020794735
  C      -1.640184     -0.850382     -1.442897
  C      -0.636299      0.099699     -1.315504
  C       0.105396      0.185304     -0.135118
  C      -0.162204     -0.700341      0.911603
  C      -1.165803     -1.649337      0.781118
  C      -1.906883     -1.726362     -0.395176
  H      -2.214621     -0.906270     -2.358262
  H      -2.687339     -2.469496     -0.494915
  H      -0.425860      0.781214     -2.130701
  H       0.419454     -0.670361      1.824902
  H      -1.366818     -2.333192      1.595315
  C       1.143973      1.229093     -0.034716
  N       1.438238      1.785058      1.229920
  H       1.132796      1.961132     -0.829797
  H       2.423664      0.371405     -0.922453
  H       1.550532      2.789145      1.257486
  H       0.938896      1.411518      2.024930
  Cu      3.053063      0.692173      0.434266
18
Coordinates from ORCA-job orca E -1967.122021381115
  C      -1.640420     -0.850175     -1.442760
  C      -0.636490      0.099884     -1.315449
  C       0.105495      0.185272     -0.135236
  C      -0.161850     -0.700559      0.911397
  C      -1.165485     -1.649518      0.780998
  C      -1.906865     -1.726329     -0.395129
  H      -2.215079     -0.905896     -2.357996
  H      -2.687346     -2.469447     -0.494793
  H      -0.426266      0.781548     -2.130576
  H       0.420067     -0.670732      1.824540
  H      -1.366307     -2.333532      1.595109
  C       1.144082      1.229064     -0.034842
  N       1.437805      1.785304      1.229780
  H       1.133186      1.960845     -0.830159
  H       2.424082      0.371104     -0.921845
  H       1.550839      2.789313      1.257075
  H       0.937793      1.412312      2.024626
  Cu      3.052756      0.691543      0.435258
18
Coordinates from ORCA-job orca E -1967.122021902135
  C      -1.640649     -0.849972     -1.442627
  C      -0.636676      0.100063     -1.315395
  C       0.105589      0.185240     -0.135348
  C      -0.161511     -0.700771      0.911199
  C      -1.165182     -1.649695      0.780882
  C      -1.906851     -1.726296     -0.395083
  H      -2.215524     -0.905532     -2.357737
  H      -2.687358     -2.469396     -0.494678
  H      -0.426657      0.781872     -2.130453
  H       0.420655     -0.671098      1.824192
  H      -1.365813     -2.333861      1.594913
  C       1.144190      1.229032     -0.034962
  N       1.437393      1.785544      1.229642
  H       1.133578      1.960559     -0.830512
  H       2.424495      0.370804     -0.921257
  H       1.551101      2.789481      1.256681
  H       0.936744      1.413066      2.024328
  Cu      3.052476      0.690960      0.436214
18
Coordinates from ORCA-job orca E -1967.122022369491
  C      -1.640867     -0.849780     -1.442500
  C      -0.636854      0.100234     -1.315346
  C       0.105677      0.185212     -0.135456
  C      -0.161190     -0.700969      0.911011
  C      -1.164897     -1.649860      0.780772
  C      -1.906838     -1.726265     -0.395038
  H      -2.215947     -0.905190     -2.357491
  H      -2.687369     -2.469348     -0.494570
  H      -0.427028      0.782179     -2.130339
  H       0.421211     -0.671442      1.823862
  H      -1.365343     -2.334167      1.594730
  C       1.144290      1.229003     -0.035077
  N       1.437005      1.785771      1.229511
  H       1.133955      1.960289     -0.830847
  H       2.424887      0.370511     -0.920701
  H       1.551331      2.789642      1.256315
  H       0.935758      1.413767      2.024041
  Cu      3.052217      0.690412      0.437121
18
Coordinates from ORCA-job orca E -1967.122022804478
  C      -1.641077     -0.849593     -1.442378
  C      -0.637025      0.100398     -1.315298
  C       0.105760      0.185184     -0.135559
  C      -0.160883     -0.701160      0.910830
  C      -1.164624     -1.650019      0.780666
  C      -1.906828     -1.726233     -0.394995
  H      -2.216355     -0.904858     -2.357252
  H      -2.687384     -2.469298     -0.494467
  H      -0.427385      0.782476     -2.130227
  H       0.421744     -0.671777      1.823545
  H      -1.364891     -2.334462      1.594555
  C       1.144387      1.228973     -0.035186
  N       1.436636      1.785991      1.229381
  H       1.134327      1.960024     -0.831171
  H       2.425268      0.370220     -0.920163
  H       1.551527      2.789802      1.255963
  H       0.934824      1.414432      2.023763
  Cu      3.051979      0.689901      0.437994
18
Coordinates from ORCA-job orca E -1967.122023197989
  C      -1.641280     -0.849413     -1.442260
  C      -0.637190      0.100556     -1.315252
  C       0.105840      0.185157     -0.135657
  C      -0.160589     -0.701344      0.910656
  C      -1.164364     -1.650172      0.780565
  C      -1.906820     -1.726202     -0.394954
  H      -2.216749     -0.904539     -2.357024
  H      -2.687400     -2.469249     -0.494370
  H      -0.427726      0.782760     -2.130120
  H       0.422254     -0.672099      1.823241
  H      -1.364457     -2.334743      1.594388
  C       1.144479      1.228942     -0.035291
  N       1.436286      1.786203      1.229255
  H       1.134688      1.959767     -0.831483
  H       2.425637      0.369933     -0.919647
  H       1.551694      2.789958      1.255626
  H       0.933940      1.415062      2.023496
  Cu      3.051758      0.689423      0.438831
18
Coordinates from ORCA-job orca E -1967.122023550437
  C      -1.641474     -0.849242     -1.442148
  C      -0.637348      0.100707     -1.315209
  C       0.105914      0.185133     -0.135751
  C      -0.160311     -0.701517      0.910490
  C      -1.164117     -1.650316      0.780469
  C      -1.906812     -1.726172     -0.394914
  H      -2.217124     -0.904236     -2.356805
  H      -2.687414     -2.469203     -0.494279
  H      -0.428052      0.783031     -2.130019
  H       0.422738     -0.672405      1.822951
  H      -1.364044     -2.335011      1.594230
  C       1.144565      1.228913     -0.035390
  N       1.435955      1.786406      1.229134
  H       1.135036      1.959521     -0.831780
  H       2.425990      0.369653     -0.919156
  H       1.551841      2.790110      1.255306
  H       0.933107      1.415656      2.023242
  Cu      3.051551      0.688970      0.439629
18
Coordinates from ORCA-job orca E -1967.122023868556
  C      -1.641663     -0.849075     -1.442040
  C      -0.637500      0.100852     -1.315167
  C       0.105986      0.185107     -0.135842
  C      -0.160043     -0.701685      0.910330
  C      -1.163881     -1.650456      0.780376
  C      -1.906806     -1.726142     -0.394876
  H      -2.217487     -0.903942     -2.356595
  H      -2.687432     -2.469155     -0.494191
  H      -0.428365      0.783293     -2.129921
  H       0.423205     -0.672702      1.822671
  H      -1.363647     -2.335268      1.594077
  C       1.144648      1.228882     -0.035486
  N       1.435638      1.786603      1.229016
  H       1.135375      1.959281     -0.832066
  H       2.426333      0.369377     -0.918678
  H       1.551961      2.790260      1.254997
  H       0.932317      1.416221      2.022996
  Cu      3.051361      0.688548      0.440398
18
Coordinates from ORCA-job orca E -1967.122024167963
  C      -1.641848     -0.848910     -1.441934
  C      -0.637648      0.100994     -1.315126
  C       0.106057      0.185080     -0.135930
  C      -0.159781     -0.701853      0.910174
  C      -1.163652     -1.650594      0.780284
  C      -1.906804     -1.726111     -0.394838
  H      -2.217845     -0.903649     -2.356388
  H      -2.687454     -2.469105     -0.494106
  H      -0.428669      0.783548     -2.129823
  H       0.423660     -0.672998      1.822397
  H      -1.363262     -2.335521      1.593927
  C       1.144731      1.228848     -0.035579
  N       1.435331      1.786798      1.228897
  H       1.135712      1.959040     -0.832348
  H       2.426671      0.369097     -0.918204
  H       1.552055      2.790412      1.254691
  H       0.931561      1.416766      2.022757
  Cu      3.051185      0.688158      0.441148
18
Coordinates from ORCA-job orca E -1967.122024444649
  C      -1.642018     -0.848759     -1.441836
  C      -0.637786      0.101126     -1.315089
  C       0.106120      0.185059     -0.136012
  C      -0.159541     -0.702003      0.910030
  C      -1.163440     -1.650718      0.780201
  C      -1.906800     -1.726083     -0.394803
  H      -2.218172     -0.903386     -2.356197
  H      -2.687470     -2.469061     -0.494027
  H      -0.428952      0.783784     -2.129735
  H       0.424082     -0.673263      1.822144
  H      -1.362904     -2.335752      1.593790
  C       1.144803      1.228821     -0.035665
  N       1.435048      1.786976      1.228788
  H       1.136021      1.958824     -0.832607
  H       2.426983      0.368843     -0.917776
  H       1.552149      2.790550      1.254415
  H       0.930859      1.417268      2.022534
  Cu      3.051017      0.687777      0.441846
18
Coordinates from ORCA-job orca E -1967.122024691287
  C      -1.642187     -0.848609     -1.441740
  C      -0.637922      0.101255     -1.315051
  C       0.106183      0.185034     -0.136091
  C      -0.159305     -0.702155      0.909888
  C      -1.163233     -1.650843      0.780118
  C      -1.906799     -1.726055     -0.394769
  H      -2.218497     -0.903121     -2.356009
  H      -2.687491     -2.469015     -0.493951
  H      -0.429229      0.784016     -2.129647
  H       0.424495     -0.673531      1.821895
  H      -1.362555     -2.335981      1.593654
  C       1.144876      1.228790     -0.035750
  N       1.434773      1.787154      1.228678
  H       1.136331      1.958604     -0.832863
  H       2.427294      0.368583     -0.917347
  H       1.552217      2.790691      1.254138
  H       0.930186      1.417755      2.022317
  Cu      3.050863      0.687427      0.442530
18
Coordinates from ORCA-job orca E -1967.122024926345
  C      -1.642353     -0.848461     -1.441645
  C      -0.638052      0.101380     -1.315015
  C       0.106247      0.185008     -0.136169
  C      -0.159074     -0.702306      0.909749
  C      -1.163033     -1.650965      0.780037
  C      -1.906800     -1.726025     -0.394736
  H      -2.218817     -0.902859     -2.355825
  H      -2.687515     -2.468967     -0.493876
  H      -0.429497      0.784242     -2.129560
  H       0.424898     -0.673796      1.821652
  H      -1.362218     -2.336206      1.593521
  C       1.144949      1.228756     -0.035832
  N       1.434505      1.787330      1.228569
  H       1.136636      1.958384     -0.833114
  H       2.427600      0.368322     -0.916922
  H       1.552265      2.790833      1.253866
  H       0.929541      1.418223      2.022105
  Cu      3.050720      0.687104      0.443195
18
Coordinates from ORCA-job orca E -1967.122025141959
  C      -1.642510     -0.848322     -1.441556
  C      -0.638177      0.101499     -1.314980
  C       0.106304      0.184985     -0.136242
  C      -0.158858     -0.702446      0.909619
  C      -1.162845     -1.651079      0.779961
  C      -1.906800     -1.725998     -0.394705
  H      -2.219117     -0.902615     -2.355652
  H      -2.687536     -2.468923     -0.493806
  H      -0.429750      0.784456     -2.129479
  H       0.425278     -0.674042      1.821423
  H      -1.361899     -2.336416      1.593395
  C       1.145015      1.228727     -0.035909
  N       1.434254      1.787495      1.228466
  H       1.136923      1.958180     -0.833351
  H       2.427889      0.368077     -0.916525
  H       1.552310      2.790967      1.253611
  H       0.928935      1.418663      2.021905
  Cu      3.050585      0.686792      0.443825
18
Coordinates from ORCA-job orca E -1967.122025357359
  C      -1.642661     -0.848188     -1.441471
  C      -0.638297      0.101613     -1.314947
  C       0.106360      0.184963     -0.136313
  C      -0.158650     -0.702581      0.909494
  C      -1.162664     -1.651189      0.779887
  C      -1.906801     -1.725971     -0.394675
  H      -2.219406     -0.902379     -2.355485
  H      -2.687558     -2.468880     -0.493739
  H      -0.429994      0.784661     -2.129401
  H       0.425643     -0.674280      1.821202
  H      -1.361593     -2.336619      1.593275
  C       1.145078      1.228697     -0.035984
  N       1.434014      1.787655      1.228366
  H       1.137201      1.957982     -0.833578
  H       2.428168      0.367838     -0.916141
  H       1.552345      2.791097      1.253365
  H       0.928358      1.419083      2.021713
  Cu      3.050457      0.686497      0.444431
18
Coordinates from ORCA-job orca E -1967.122025523523
  C      -1.642806     -0.848059     -1.441389
  C      -0.638412      0.101722     -1.314916
  C       0.106412      0.184941     -0.136380
  C      -0.158452     -0.702710      0.909374
  C      -1.162491     -1.651294      0.779817
  C      -1.906803     -1.725945     -0.394646
  H      -2.219684     -0.902153     -2.355325
  H      -2.687578     -2.468838     -0.493675
  H      -0.430228      0.784858     -2.129325
  H       0.425993     -0.674508      1.820990
  H      -1.361300     -2.336813      1.593159
  C       1.145138      1.228668     -0.036055
  N       1.433785      1.787809      1.228269
  H       1.137469      1.957791     -0.833797
  H       2.428437      0.367606     -0.915773
  H       1.552372      2.791224      1.253130
  H       0.927811      1.419483      2.021529
  Cu      3.050337      0.686217      0.445013
18
Coordinates from ORCA-job orca E -1967.122025692156
  C      -1.642945     -0.847936     -1.441310
  C      -0.638523      0.101828     -1.314885
  C       0.106462      0.184921     -0.136445
  C      -0.158262     -0.702834      0.909259
  C      -1.162326     -1.651395      0.779750
  C      -1.906804     -1.725920     -0.394619
  H      -2.219950     -0.901936     -2.355172
  H      -2.687599     -2.468798     -0.493613
  H      -0.430452      0.785046     -2.129253
  H       0.426328     -0.674726      1.820787
  H      -1.361020     -2.337000      1.593047
  C       1.145196      1.228641     -0.036124
  N       1.433566      1.787957      1.228176
  H       1.137726      1.957608     -0.834006
  H       2.428695      0.367383     -0.915419
  H       1.552393      2.791346      1.252904
  H       0.927290      1.419865      2.021353
  Cu      3.050223      0.685951      0.445571
18
Coordinates from ORCA-job orca E -1967.122025830561
  C      -1.643080     -0.847816     -1.441235
  C      -0.638629      0.101929     -1.314856
  C       0.106511      0.184900     -0.136507
  C      -0.158080     -0.702954      0.909148
  C      -1.162168     -1.651492      0.779685
  C      -1.906807     -1.725895     -0.394592
  H      -2.220206     -0.901726     -2.355024
  H      -2.687619     -2.468759     -0.493554
  H      -0.430668      0.785228     -2.129183
  H       0.426651     -0.674937      1.820592
  H      -1.360751     -2.337180      1.592939
  C       1.145251      1.228613     -0.036189
  N       1.433356      1.788100      1.228085
  H       1.137976      1.957430     -0.834208
  H       2.428945      0.367164     -0.915076
  H       1.552407      2.791466      1.252685
  H       0.926795      1.420229      2.021183
  Cu      3.050116      0.685700      0.446109
