18
Coordinates from ORCA-job orca E -1967.195772094507
  C          -2.98861951877506      1.81932891428774      1.60538688859814
  C          -1.90013787324360      2.66633353690297      1.50438237439909
  C          -0.72772658754616      2.40010642367300      2.23560509262513
  C          -0.66711602082059      1.26630614518880      3.06794202295321
  C          -1.76002390355994      0.42926316372694      3.16397230343193
  C          -2.91924721605465      0.70185196622054      2.43298137799248
  H          -3.89069382695188      2.02116057867478      1.04223737035778
  H          -3.76822407364182      0.03499512894280      2.51073894700678
  H          -1.93914815031786      3.54217807720054      0.86835214967415
  H           0.26081239020892      1.02001800805308      3.57733141129167
  H          -1.71451687498592     -0.45391035181648      3.78841012400010
  C           0.42031222470280      3.37526760162989      2.23956843206141
  N           0.32094251819901      4.23278135471346      3.46330001567427
  H          -0.29963995516795      5.01847993054737      3.28360775547658
  H           1.22660819588287      4.62893374620698      3.69835685363216
  H           0.41837921045462      3.99304916534460      1.34121555323017
  H           1.37053453356327      2.84585294119745      2.29493165481600
  Cu         -0.52992938160526      3.09550229115488      4.86835871616135
