18
Coordinates from ORCA-job orca E -1967.067812059418
  C      -2.988620      1.819329      1.605387
  C      -1.900138      2.666334      1.504382
  C      -0.727727      2.400106      2.235605
  C      -0.667116      1.266306      3.067942
  C      -1.760024      0.429263      3.163972
  C      -2.919247      0.701852      2.432981
  H      -3.889160      2.025652      1.043314
  H      -3.769756      0.037331      2.512291
  H      -1.939782      3.536898      0.862308
  H       0.225406      1.036279      3.634672
  H      -1.717588     -0.440597      3.805218
  C       0.352256      3.327667      2.083026
  N       1.528708      3.287384      2.748929
  H       1.679487      2.616131      3.494728
  H       2.065013      4.145101      2.833067
  H       0.169645      4.240862      1.528906
  H       0.943865      3.525711      0.859348
  Cu      3.111429      2.754611      1.328968
18
Coordinates from ORCA-job orca E -1967.100553291316
  C      -2.988620      1.819329      1.605387
  C      -1.900138      2.666334      1.504382
  C      -0.727727      2.400106      2.235605
  C      -0.667116      1.266306      3.067942
  C      -1.760024      0.429263      3.163972
  C      -2.919247      0.701852      2.432981
  H      -3.889975      2.025566      1.043349
  H      -3.770008      0.037335      2.512740
  H      -1.939732      3.537514      0.862535
  H       0.226895      1.037361      3.633572
  H      -1.718038     -0.441194      3.805367
  C       0.375268      3.320336      2.094153
  N       1.559576      3.246533      2.856915
  H       1.626817      2.589074      3.620305
  H       2.107494      4.089817      2.978610
  H       0.203072      4.269543      1.586386
  H       0.910249      3.394760      0.868555
  Cu      3.190327      2.588658      1.571200
18
Coordinates from ORCA-job orca E -1967.125868974587
  C      -2.988620      1.819329      1.605387
  C      -1.900138      2.666334      1.504382
  C      -0.727727      2.400106      2.235605
  C      -0.667116      1.266306      3.067942
  C      -1.760024      0.429263      3.163972
  C      -2.919247      0.701852      2.432981
  H      -3.890448      2.025335      1.043363
  H      -3.770134      0.037320      2.513053
  H      -1.939421      3.537729      0.862185
  H       0.227731      1.037217      3.632035
  H      -1.718601     -0.441894      3.805067
  C       0.397387      3.318198      2.096982
  N       1.576181      3.219540      2.930764
  H       1.570425      2.578894      3.708419
  H       2.124135      4.056008      3.079208
  H       0.231136      4.296189      1.635575
  H       0.873176      3.282436      0.927922
  Cu      3.220809      2.443227      1.769220
18
Coordinates from ORCA-job orca E -1967.154093917894
  C      -2.988620      1.819329      1.605387
  C      -1.900138      2.666334      1.504382
  C      -0.727727      2.400106      2.235605
  C      -0.667116      1.266306      3.067942
  C      -1.760024      0.429263      3.163972
  C      -2.919247      0.701852      2.432981
  H      -3.890919      2.025168      1.043650
  H      -3.770352      0.037535      2.513653
  H      -1.939277      3.538000      0.862034
  H       0.228614      1.036308      3.629737
  H      -1.719391     -0.442751      3.804405
  C       0.424326      3.315762      2.093398
  N       1.565755      3.204665      3.030728
  H       1.448998      2.600856      3.828675
  H       2.091139      4.046897      3.216437
  H       0.252280      4.329788      1.704896
  H       0.844165      3.159297      1.046793
  Cu      3.231028      2.281399      2.094874
18
Coordinates from ORCA-job orca E -1967.176198344892
  C      -2.988620      1.819329      1.605387
  C      -1.900138      2.666333      1.504382
  C      -0.727727      2.400107      2.235605
  C      -0.667116      1.266306      3.067942
  C      -1.760024      0.429263      3.163972
  C      -2.919247      0.701852      2.432981
  H      -3.891582      2.025470      1.044848
  H      -3.770975      0.038526      2.515206
  H      -1.939677      3.538674      0.862798
  H       0.230273      1.031731      3.624452
  H      -1.720036     -0.444102      3.802739
  C       0.454313      3.308308      2.059271
  N       1.488281      3.235326      3.142631
  H       1.208153      2.706004      3.955635
  H       1.919292      4.119130      3.373999
  H       0.223296      4.357416      1.814391
  H       0.887031      3.027593      1.121019
  Cu      3.189572      2.210886      2.581677
18
Coordinates from ORCA-job orca E -1967.183262719601
  C      -2.988620      1.819329      1.605387
  C      -1.900138      2.666333      1.504382
  C      -0.727727      2.400106      2.235605
  C      -0.667116      1.266306      3.067942
  C      -1.760024      0.429263      3.163972
  C      -2.919247      0.701852      2.432981
  H      -3.892286      2.025921      1.046286
  H      -3.771253      0.039028      2.515905
  H      -1.940616      3.540075      0.865022
  H       0.232010      1.026346      3.619712
  H      -1.720124     -0.444971      3.801396
  C       0.466831      3.306149      2.031888
  N       1.384893      3.302410      3.213143
  H       0.967662      2.854620      4.019463
  H       1.701408      4.233663      3.450282
  H       0.160931      4.344086      1.879212
  H       0.986849      2.946702      1.114823
  Cu      3.098763      2.268515      2.980715
18
Coordinates from ORCA-job orca E -1967.185330135193
  C      -2.988620      1.819329      1.605387
  C      -1.900138      2.666334      1.504382
  C      -0.727727      2.400106      2.235605
  C      -0.667116      1.266306      3.067942
  C      -1.760024      0.429263      3.163972
  C      -2.919247      0.701852      2.432981
  H      -3.893078      2.026334      1.047499
  H      -3.771177      0.038843      2.515613
  H      -1.942006      3.542360      0.868421
  H       0.233228      1.024852      3.618389
  H      -1.720233     -0.444889      3.801553
  C       0.465511      3.314852      2.035627
  N       1.345555      3.366379      3.251226
  H       0.859130      2.998922      4.060933
  H       1.613390      4.322202      3.454055
  H       0.130563      4.333178      1.851974
  H       1.017172      2.934432      1.182625
  Cu      3.029183      2.314824      3.188341
18
Coordinates from ORCA-job orca E -1967.186864414426
  C      -2.988620      1.819329      1.605387
  C      -1.900138      2.666333      1.504382
  C      -0.727727      2.400107      2.235605
  C      -0.667116      1.266306      3.067942
  C      -1.760024      0.429263      3.163972
  C      -2.919247      0.701852      2.432981
  H      -3.893482      2.026234      1.048136
  H      -3.771367      0.039084      2.515707
  H      -1.943432      3.544589      0.871715
  H       0.233494      1.030017      3.621720
  H      -1.720761     -0.443656      3.803237
  C       0.459923      3.322405      2.051466
  N       1.300383      3.445469      3.291376
  H       0.736092      3.197412      4.100592
  H       1.544794      4.421519      3.429280
  H       0.112141      4.315072      1.781425
  H       1.074522      2.919192      1.259190
  Cu      2.921663      2.358435      3.419651
18
Coordinates from ORCA-job orca E -1967.187556082498
  C      -2.988620      1.819329      1.605387
  C      -1.900138      2.666333      1.504382
  C      -0.727727      2.400107      2.235605
  C      -0.667116      1.266306      3.067942
  C      -1.760024      0.429263      3.163972
  C      -2.919247      0.701852      2.432981
  H      -3.893226      2.025723      1.047677
  H      -3.771621      0.039464      2.515988
  H      -1.943654      3.544798      0.872066
  H       0.232268      1.039016      3.627390
  H      -1.721229     -0.442633      3.804666
  C       0.454214      3.322325      2.063369
  N       1.266184      3.491042      3.314482
  H       0.664050      3.318411      4.118989
  H       1.528061      4.469856      3.404453
  H       0.109181      4.298391      1.729692
  H       1.112038      2.922097      1.295313
  Cu      2.843115      2.372917      3.542746
18
Coordinates from ORCA-job orca E -1967.188141978825
  C      -2.988620      1.819329      1.605387
  C      -1.900138      2.666333      1.504382
  C      -0.727727      2.400107      2.235605
  C      -0.667116      1.266306      3.067942
  C      -1.760024      0.429263      3.163972
  C      -2.919247      0.701852      2.432981
  H      -3.892933      2.025261      1.047187
  H      -3.771757      0.039674      2.516030
  H      -1.943601      3.544565      0.871817
  H       0.231816      1.048388      3.631103
  H      -1.721284     -0.442684      3.804643
  C       0.449400      3.320759      2.076208
  N       1.185604      3.569692      3.357854
  H       0.515490      3.510771      4.125927
  H       1.489717      4.541271      3.374682
  H       0.111560      4.270328      1.660204
  H       1.169025      2.915205      1.360179
  Cu      2.673128      2.406891      3.787297
18
Coordinates from ORCA-job orca E -1967.188691245670
  C      -2.988620      1.819329      1.605387
  C      -1.900138      2.666334      1.504382
  C      -0.727727      2.400106      2.235605
  C      -0.667116      1.266306      3.067942
  C      -1.760024      0.429263      3.163972
  C      -2.919247      0.701852      2.432981
  H      -3.892384      2.024499      1.046053
  H      -3.771491      0.039283      2.515457
  H      -1.942134      3.542436      0.868881
  H       0.232971      1.051389      3.630240
  H      -1.720903     -0.443847      3.803088
  C       0.451819      3.313142      2.071770
  N       1.131223      3.634242      3.367342
  H       0.420148      3.681412      4.097778
  H       1.506818      4.579076      3.316394
  H       0.131455      4.238972      1.588904
  H       1.207532      2.883487      1.405029
  Cu      2.518273      2.422750      3.964514
18
Coordinates from ORCA-job orca E -1967.189382817060
  C      -2.988620      1.819329      1.605387
  C      -1.900138      2.666334      1.504382
  C      -0.727727      2.400106      2.235605
  C      -0.667116      1.266306      3.067942
  C      -1.760024      0.429263      3.163972
  C      -2.919247      0.701852      2.432981
  H      -3.892376      2.024399      1.046044
  H      -3.771313      0.039035      2.515136
  H      -1.942467      3.543227      0.870125
  H       0.234314      1.055620      3.630650
  H      -1.720997     -0.444242      3.802572
  C       0.447595      3.318798      2.087458
  N       1.028114      3.731956      3.404449
  H       0.255147      3.894814      4.051095
  H       1.466970      4.644503      3.295858
  H       0.144614      4.207799      1.528795
  H       1.258951      2.870450      1.502206
  Cu      2.272600      2.513098      4.236964
18
Coordinates from ORCA-job orca E -1967.190792369325
  C      -2.988620      1.819329      1.605387
  C      -1.900138      2.666333      1.504382
  C      -0.727727      2.400106      2.235605
  C      -0.667116      1.266306      3.067942
  C      -1.760024      0.429263      3.163972
  C      -2.919247      0.701852      2.432981
  H      -3.891818      2.023367      1.044733
  H      -3.770267      0.037533      2.513490
  H      -1.941438      3.542737      0.869513
  H       0.240011      1.050575      3.622297
  H      -1.720254     -0.446561      3.799360
  C       0.446128      3.326485      2.101553
  N       0.878172      3.882567      3.424596
  H       0.044864      4.204465      3.916222
  H       1.434413      4.719813      3.260703
  H       0.184031      4.154263      1.439195
  H       1.316599      2.835123      1.657040
  Cu      1.858886      2.693398      4.594100
18
Coordinates from ORCA-job orca E -1967.191877198486
  C      -2.988620      1.819329      1.605387
  C      -1.900138      2.666334      1.504382
  C      -0.727727      2.400106      2.235605
  C      -0.667116      1.266306      3.067942
  C      -1.760024      0.429263      3.163972
  C      -2.919247      0.701852      2.432981
  H      -3.891193      2.022203      1.043273
  H      -3.769519      0.036455      2.512328
  H      -1.939963      3.541271      0.867412
  H       0.243748      1.044831      3.615311
  H      -1.719666     -0.448057      3.797259
  C       0.447228      3.327584      2.105862
  N       0.782075      3.986198      3.410667
  H      -0.071777      4.403609      3.778808
  H       1.413451      4.764723      3.230339
  H       0.222800      4.103763      1.371890
  H       1.346845      2.809756      1.765410
  Cu      1.557469      2.860907      4.785060
18
Coordinates from ORCA-job orca E -1967.192874745056
  C      -2.988620      1.819329      1.605387
  C      -1.900138      2.666334      1.504382
  C      -0.727727      2.400106      2.235605
  C      -0.667116      1.266306      3.067942
  C      -1.760024      0.429263      3.163972
  C      -2.919247      0.701852      2.432981
  H      -3.890724      2.021273      1.042165
  H      -3.768837      0.035458      2.511167
  H      -1.939078      3.540582      0.866361
  H       0.246979      1.041195      3.609696
  H      -1.719186     -0.449218      3.795614
  C       0.446131      3.331041      2.120806
  N       0.676721      4.078408      3.400483
  H      -0.182878      4.574337      3.631116
  H       1.379168      4.797771      3.237528
  H       0.269707      4.055076      1.323437
  H       1.370361      2.799146      1.889417
  Cu      1.207737      3.027452      4.943268
18
Coordinates from ORCA-job orca E -1967.193863053727
  C      -2.988620      1.819329      1.605387
  C      -1.900138      2.666334      1.504382
  C      -0.727727      2.400106      2.235605
  C      -0.667116      1.266306      3.067942
  C      -1.760024      0.429263      3.163972
  C      -2.919247      0.701852      2.432981
  H      -3.890176      2.020141      1.040810
  H      -3.768064      0.034315      2.509780
  H      -1.937780      3.539397      0.864227
  H       0.248632      1.035688      3.604008
  H      -1.718805     -0.449848      3.794697
  C       0.445660      3.335145      2.146892
  N       0.562874      4.156968      3.395609
  H      -0.283463      4.716337      3.485631
  H       1.330875      4.817231      3.291304
  H       0.336269      4.009334      1.296703
  H       1.377728      2.783552      2.038211
  Cu      0.794316      3.175536      5.065203
18
Coordinates from ORCA-job orca E -1967.194737435806
  C      -2.988619      1.819329      1.605387
  C      -1.900138      2.666334      1.504382
  C      -0.727727      2.400106      2.235605
  C      -0.667116      1.266306      3.067942
  C      -1.760024      0.429263      3.163972
  C      -2.919247      0.701852      2.432981
  H      -3.889512      2.018854      1.039267
  H      -3.767437      0.033381      2.508452
  H      -1.936268      3.537694      0.861487
  H       0.251013      1.031637      3.598220
  H      -1.718015     -0.451034      3.793023
  C       0.444324      3.338025      2.179501
  N       0.407339      4.270827      3.351708
  H      -0.379411      4.905874      3.231037
  H       1.245459      4.848655      3.360381
  H       0.439370      3.927303      1.262303
  H       1.375289      2.779920      2.244459
  Cu      0.166195      3.428141      5.105934
18
Coordinates from ORCA-job orca E -1967.194976729466
  C      -2.988620      1.819329      1.605387
  C      -1.900138      2.666334      1.504382
  C      -0.727727      2.400106      2.235605
  C      -0.667116      1.266306      3.067942
  C      -1.760024      0.429263      3.163972
  C      -2.919247      0.701852      2.432981
  H      -3.889587      2.019020      1.039466
  H      -3.768002      0.034181      2.509285
  H      -1.936926      3.538345      0.862227
  H       0.246271      1.042212      3.608740
  H      -1.719160     -0.449187      3.795701
  C       0.433092      3.351656      2.210419
  N       0.308486      4.322698      3.342944
  H      -0.427252      4.990732      3.122536
  H       1.167319      4.859205      3.444247
  H       0.486643      3.901928      1.270283
  H       1.365112      2.810733      2.357751
  Cu     -0.198059      3.513102      5.060854
18
Coordinates from ORCA-job orca E -1967.195096406298
  C      -2.988620      1.819329      1.605387
  C      -1.900138      2.666333      1.504382
  C      -0.727727      2.400107      2.235605
  C      -0.667116      1.266306      3.067942
  C      -1.760024      0.429263      3.163972
  C      -2.919247      0.701852      2.432981
  H      -3.889754      2.019467      1.039940
  H      -3.768355      0.034704      2.509715
  H      -1.937238      3.537963      0.861780
  H       0.244812      1.048216      3.612735
  H      -1.718899     -0.449460      3.795286
  C       0.428752      3.357234      2.209165
  N       0.294634      4.341323      3.328888
  H      -0.425478      5.019924      3.089617
  H       1.159039      4.866371      3.440731
  H       0.483356      3.893772      1.260646
  H       1.369301      2.830247      2.361888
  Cu     -0.251394      3.528832      5.029879
18
Coordinates from ORCA-job orca E -1967.195248419123
  C      -2.988620      1.819329      1.605387
  C      -1.900138      2.666334      1.504382
  C      -0.727727      2.400106      2.235605
  C      -0.667116      1.266306      3.067942
  C      -1.760024      0.429263      3.163972
  C      -2.919247      0.701852      2.432981
  H      -3.890314      2.020610      1.041278
  H      -3.768798      0.035355      2.510125
  H      -1.938445      3.538142      0.862091
  H       0.244948      1.052454      3.614112
  H      -1.717827     -0.450505      3.793688
  C       0.421156      3.368209      2.213483
  N       0.268289      4.357329      3.325920
  H      -0.430143      5.052225      3.069986
  H       1.137085      4.868237      3.463632
  H       0.476932      3.894759      1.259300
  H       1.367239      2.852620      2.374858
  Cu     -0.356508      3.502942      4.978005
18
Coordinates from ORCA-job orca E -1967.195106560051
  C      -2.988620      1.819329      1.605387
  C      -1.900138      2.666334      1.504382
  C      -0.727727      2.400106      2.235605
  C      -0.667116      1.266306      3.067942
  C      -1.760024      0.429263      3.163972
  C      -2.919247      0.701852      2.432981
  H      -3.891913      2.023845      1.045121
  H      -3.769895      0.037053      2.511189
  H      -1.943108      3.540421      0.865613
  H       0.247829      1.058866      3.612379
  H      -1.714381     -0.453629      3.788841
  C       0.391330      3.407876      2.251354
  N       0.143599      4.391202      3.349345
  H      -0.468262      5.142942      3.039838
  H       1.009449      4.845479      3.626474
  H       0.473849      3.914343      1.288278
  H       1.345254      2.923832      2.462520
  Cu     -0.818521      3.368438      4.731053
18
Coordinates from ORCA-job orca E -1967.195467715722
  C      -2.988620      1.819329      1.605387
  C      -1.900138      2.666333      1.504382
  C      -0.727727      2.400106      2.235605
  C      -0.667116      1.266306      3.067942
  C      -1.760024      0.429263      3.163972
  C      -2.919247      0.701852      2.432981
  H      -3.890964      2.022022      1.042906
  H      -3.769190      0.036069      2.510699
  H      -1.940986      3.539804      0.864777
  H       0.249604      1.048786      3.605912
  H      -1.715631     -0.452404      3.790703
  C       0.408586      3.386663      2.231007
  N       0.229081      4.345203      3.364695
  H      -0.440419      5.069543      3.114184
  H       1.100649      4.829065      3.564534
  H       0.459740      3.924709      1.283226
  H       1.359500      2.878373      2.387778
  Cu     -0.537483      3.336424      4.876324
18
Coordinates from ORCA-job orca E -1967.195531932117
  C      -2.988620      1.819329      1.605387
  C      -1.900138      2.666334      1.504382
  C      -0.727727      2.400106      2.235605
  C      -0.667116      1.266306      3.067942
  C      -1.760024      0.429263      3.163972
  C      -2.919247      0.701852      2.432981
  H      -3.890347      2.020706      1.041395
  H      -3.768307      0.034820      2.509755
  H      -1.939337      3.539429      0.864314
  H       0.254129      1.035865      3.594753
  H      -1.715763     -0.452527      3.790585
  C       0.422283      3.369598      2.218514
  N       0.314518      4.281411      3.399760
  H      -0.394802      4.989426      3.222992
  H       1.187245      4.783604      3.542220
  H       0.438758      3.949135      1.294558
  H       1.369029      2.839388      2.311511
  Cu     -0.286464      3.230428      4.961385
18
Coordinates from ORCA-job orca E -1967.195620883585
  C      -2.988620      1.819329      1.605387
  C      -1.900138      2.666333      1.504382
  C      -0.727727      2.400107      2.235605
  C      -0.667116      1.266306      3.067942
  C      -1.760024      0.429263      3.163972
  C      -2.919247      0.701852      2.432981
  H      -3.890487      2.020997      1.041781
  H      -3.768345      0.034978      2.510071
  H      -1.939806      3.540152      0.865463
  H       0.256956      1.031432      3.588661
  H      -1.715097     -0.453113      3.789641
  C       0.420243      3.373203      2.225768
  N       0.311260      4.263011      3.422952
  H      -0.386321      4.984680      3.255035
  H       1.188729      4.748744      3.589514
  H       0.431139      3.964630      1.309394
  H       1.368707      2.843682      2.307338
  Cu     -0.345609      3.145963      4.922479
18
Coordinates from ORCA-job orca E -1967.195697886418
  C      -2.988620      1.819329      1.605387
  C      -1.900138      2.666333      1.504382
  C      -0.727727      2.400107      2.235605
  C      -0.667116      1.266306      3.067942
  C      -1.760024      0.429263      3.163972
  C      -2.919247      0.701852      2.432981
  H      -3.890432      2.020817      1.041684
  H      -3.768035      0.034624      2.509908
  H      -1.939181      3.540365      0.865744
  H       0.260790      1.023990      3.579307
  H      -1.714475     -0.454144      3.788114
  C       0.421901      3.371681      2.231990
  N       0.299008      4.268760      3.422543
  H      -0.371291      5.008987      3.226188
  H       1.184050      4.729086      3.617911
  H       0.442591      3.957274      1.312053
  H       1.370022      2.843285      2.327331
  Cu     -0.454341      3.163286      4.891088
18
Coordinates from ORCA-job orca E -1967.195522524886
  C      -2.988620      1.819329      1.605387
  C      -1.900138      2.666334      1.504382
  C      -0.727727      2.400106      2.235605
  C      -0.667116      1.266306      3.067942
  C      -1.760024      0.429263      3.163972
  C      -2.919247      0.701852      2.432981
  H      -3.890498      2.020801      1.041944
  H      -3.767660      0.034399      2.510619
  H      -1.938586      3.542987      0.869438
  H       0.268815      1.004675      3.556407
  H      -1.713509     -0.455508      3.785996
  C       0.420515      3.375283      2.260920
  N       0.268180      4.250677      3.464798
  H      -0.323105      5.045297      3.232061
  H       1.165169      4.630122      3.753356
  H       0.453799      3.972985      1.349358
  H       1.369162      2.849349      2.364950
  Cu     -0.749299      3.111202      4.766808
18
Coordinates from ORCA-job orca E -1967.195756281105
  C      -2.988620      1.819329      1.605387
  C      -1.900138      2.666334      1.504382
  C      -0.727727      2.400106      2.235605
  C      -0.667116      1.266306      3.067942
  C      -1.760024      0.429263      3.163972
  C      -2.919247      0.701852      2.432981
  H      -3.890489      2.020887      1.041853
  H      -3.768128      0.034889      2.510766
  H      -1.939186      3.542197      0.868301
  H       0.261773      1.018878      3.574912
  H      -1.714887     -0.453546      3.788955
  C       0.419649      3.375251      2.246083
  N       0.292089      4.251469      3.452358
  H      -0.353646      5.012320      3.253909
  H       1.183886      4.681661      3.680995
  H       0.438194      3.976154      1.336169
  H       1.369036      2.848033      2.332113
  Cu     -0.547005      3.113286      4.862382
18
Coordinates from ORCA-job orca E -1967.195709330698
  C      -2.988620      1.819329      1.605387
  C      -1.900138      2.666333      1.504382
  C      -0.727727      2.400106      2.235605
  C      -0.667116      1.266306      3.067942
  C      -1.760024      0.429263      3.163972
  C      -2.919247      0.701852      2.432981
  H      -3.890436      2.020780      1.041702
  H      -3.767956      0.034625      2.510444
  H      -1.938858      3.541903      0.867953
  H       0.262344      1.017262      3.573851
  H      -1.714598     -0.454017      3.788279
  C       0.422706      3.371517      2.239614
  N       0.325310      4.225900      3.464530
  H      -0.335151      4.982115      3.299625
  H       1.219699      4.662535      3.669996
  H       0.424447      3.989225      1.340867
  H       1.371573      2.839360      2.296106
  Cu     -0.447001      3.060824      4.890406
18
Coordinates from ORCA-job orca E -1967.195764176998
  C      -2.988620      1.819329      1.605387
  C      -1.900138      2.666334      1.504382
  C      -0.727727      2.400106      2.235605
  C      -0.667116      1.266306      3.067942
  C      -1.760024      0.429263      3.163972
  C      -2.919247      0.701852      2.432981
  H      -3.890494      2.020914      1.041843
  H      -3.768146      0.034893      2.510737
  H      -1.939018      3.542086      0.868167
  H       0.260921      1.020208      3.577263
  H      -1.714872     -0.453622      3.788856
  C       0.420259      3.374568      2.242766
  N       0.305592      4.242135      3.457110
  H      -0.342068      5.004519      3.271524
  H       1.200089      4.670637      3.678260
  H       0.430955      3.982962      1.337736
  H       1.369708      2.845682      2.315836
  Cu     -0.512743      3.098175      4.874861
18
Coordinates from ORCA-job orca E -1967.195782659466
  C      -2.988620      1.819329      1.605387
  C      -1.900138      2.666334      1.504382
  C      -0.727727      2.400106      2.235605
  C      -0.667116      1.266306      3.067942
  C      -1.760024      0.429263      3.163972
  C      -2.919247      0.701852      2.432981
  H      -3.890543      2.021009      1.041956
  H      -3.768173      0.034941      2.510780
  H      -1.939014      3.542201      0.868341
  H       0.260681      1.020573      3.577735
  H      -1.714773     -0.453747      3.788663
  C       0.419409      3.375768      2.243542
  N       0.302251      4.243686      3.457752
  H      -0.336313      5.012577      3.267824
  H       1.198874      4.663124      3.687324
  H       0.430157      3.984278      1.338672
  H       1.369385      2.847953      2.317429
  Cu     -0.539944      3.102939      4.865740
18
Coordinates from ORCA-job orca E -1967.195768803312
  C      -2.988620      1.819329      1.605387
  C      -1.900138      2.666334      1.504382
  C      -0.727727      2.400106      2.235605
  C      -0.667116      1.266306      3.067942
  C      -1.760024      0.429263      3.163972
  C      -2.919247      0.701852      2.432981
  H      -3.890597      2.021100      1.042069
  H      -3.768195      0.034967      2.510767
  H      -1.938977      3.542179      0.868324
  H       0.260459      1.020965      3.578316
  H      -1.714678     -0.453869      3.788482
  C       0.419394      3.375884      2.241935
  N       0.307483      4.240770      3.459215
  H      -0.326429      5.014247      3.272582
  H       1.206758      4.654007      3.689601
  H       0.426230      3.987415      1.339158
  H       1.369704      2.847964      2.310164
  Cu     -0.537284      3.100900      4.866745
18
Coordinates from ORCA-job orca E -1967.195779528617
  C      -2.988620      1.819329      1.605387
  C      -1.900138      2.666334      1.504382
  C      -0.727727      2.400106      2.235605
  C      -0.667116      1.266306      3.067942
  C      -1.760024      0.429263      3.163972
  C      -2.919247      0.701852      2.432981
  H      -3.890711      2.021248      1.042289
  H      -3.768227      0.035001      2.510732
  H      -1.938972      3.542155      0.868331
  H       0.260599      1.020644      3.577984
  H      -1.714482     -0.454062      3.788191
  C       0.419697      3.375739      2.238846
  N       0.319912      4.233368      3.463008
  H      -0.303505      5.016998      3.283977
  H       1.224969      4.632514      3.695386
  H       0.417650      3.994098      1.340921
  H       1.370565      2.847400      2.294188
  Cu     -0.529889      3.094368      4.868572
18
Coordinates from ORCA-job orca E -1967.195775665379
  C      -2.988620      1.819329      1.605387
  C      -1.900138      2.666334      1.504382
  C      -0.727727      2.400106      2.235605
  C      -0.667116      1.266306      3.067942
  C      -1.760024      0.429263      3.163972
  C      -2.919247      0.701852      2.432981
  H      -3.890704      2.021212      1.042265
  H      -3.768229      0.035001      2.510728
  H      -1.939026      3.542150      0.868318
  H       0.260738      1.020384      3.577627
  H      -1.714501     -0.453987      3.788295
  C       0.419888      3.375554      2.238780
  N       0.320871      4.233051      3.463019
  H      -0.301191      5.017747      3.284013
  H       1.226397      4.630669      3.696148
  H       0.417432      3.993998      1.340909
  H       1.370658      2.847022      2.293598
  Cu     -0.529724      3.094978      4.868415
18
Coordinates from ORCA-job orca E -1967.195737660567
  C      -2.988620      1.819329      1.605387
  C      -1.900138      2.666334      1.504382
  C      -0.727727      2.400106      2.235605
  C      -0.667116      1.266306      3.067942
  C      -1.760024      0.429263      3.163972
  C      -2.919247      0.701852      2.432981
  H      -3.890686      2.021141      1.042220
  H      -3.768224      0.034996      2.510728
  H      -1.939147      3.542162      0.868334
  H       0.260922      1.019950      3.577101
  H      -1.714540     -0.453857      3.788489
  C       0.420263      3.375210      2.239175
  N       0.321542      4.232812      3.463069
  H      -0.299022      5.018586      3.283623
  H       1.227382      4.628868      3.697590
  H       0.417899      3.993294      1.341034
  H       1.370697      2.846120      2.294112
  Cu     -0.529550      3.096016      4.868323
18
Coordinates from ORCA-job orca E -1967.195779571713
  C      -2.988620      1.819329      1.605387
  C      -1.900138      2.666334      1.504382
  C      -0.727727      2.400106      2.235605
  C      -0.667116      1.266306      3.067942
  C      -1.760024      0.429263      3.163972
  C      -2.919247      0.701852      2.432981
  H      -3.890688      2.021143      1.042224
  H      -3.768225      0.034997      2.510734
  H      -1.939158      3.542169      0.868341
  H       0.260882      1.019969      3.577189
  H      -1.714534     -0.453866      3.788475
  C       0.420331      3.375183      2.239349
  N       0.321435      4.232767      3.463148
  H      -0.298924      5.018651      3.283564
  H       1.227255      4.628639      3.698008
  H       0.418173      3.993116      1.341099
  H       1.370638      2.845890      2.294459
  Cu     -0.529703      3.096025      4.868354
18
Coordinates from ORCA-job orca E -1967.195772094507
  C      -2.988620      1.819329      1.605387
  C      -1.900138      2.666334      1.504382
  C      -0.727727      2.400106      2.235605
  C      -0.667116      1.266306      3.067942
  C      -1.760024      0.429263      3.163972
  C      -2.919247      0.701852      2.432981
  H      -3.890694      2.021161      1.042237
  H      -3.768224      0.034995      2.510739
  H      -1.939148      3.542178      0.868352
  H       0.260812      1.020018      3.577331
  H      -1.714517     -0.453910      3.788410
  C       0.420312      3.375268      2.239568
  N       0.320943      4.232781      3.463300
  H      -0.299640      5.018480      3.283608
  H       1.226608      4.628934      3.698357
  H       0.418379      3.993049      1.341216
  H       1.370535      2.845853      2.294932
  Cu     -0.529929      3.095502      4.868359
