18
Coordinates from ORCA-job orca E -1967.163008476375
  C          -2.96725260119414      2.20744797245303      2.05898073770496
  C          -1.75039654379235      2.71857710056637      1.62303296436989
  C          -0.57175244663591      1.99432313454834      1.80461343262102
  C          -0.63135348215767      0.74584529060617      2.42516091186591
  C          -1.84751685787060      0.23125057201733      2.86092776717977
  C          -3.01723098180578      0.96262219316572      2.67984801285656
  H          -3.87637099840340      2.77582051971710      1.90890555862806
  H          -3.96512257944172      0.56158914538490      3.01541007039907
  H          -1.71503430337609      3.68428812932578      1.13156877834705
  H           0.27784481880629      0.17161097223665      2.56348898710592
  H          -1.88310740513295     -0.74059891186492      3.33666825799244
  C           0.75603034308305      2.55976454076577      1.37331563687675
  N           1.36539093720528      3.42021381116691      2.44545423433426
  H           1.46188082005921      2.86596754639698      3.29462569165913
  H           0.71512078707961      4.16670140679845      2.68092587018939
  H           0.62979438624482      3.19486094442218      0.49678656382720
  H           1.34777211111585      1.90156226446755      1.18453946705359
  Cu          3.09376399621697      4.21261336782440      2.02878705698761
