18
Coordinates from ORCA-job orca E -1967.143424127905
  C          -2.97719441784502      1.81387963047679      1.59481416549206
  C          -1.88450103656322      2.65527231489492      1.48910866452743
  C          -0.71615532692971      2.39177416896546      2.22627870234479
  C          -0.66318891605459      1.26624506032554      3.06874489739500
  C          -1.76029200685164      0.43413492884030      3.16975548840642
  C          -2.91597970721923      0.70393961859477      2.43313749564421
  H          -3.87492197652300      2.01913130171188      1.02777114378400
  H          -3.76967565880254      0.04399047999346      2.51616866000230
  H          -1.91858336179858      3.51945682471499      0.83809924686494
  H           0.22648976154703      1.03702929859035      3.64036181114870
  H          -1.72276031051890     -0.42949917797156      3.81973739604319
  C           0.37083839107141      3.31524636189845      2.06976234577605
  N           1.53740316214177      3.28226959170719      2.75954417906782
  H           1.67518467872608      2.61415630997008      3.51014011263463
  H           2.06617195934613      4.14327826440094      2.85341804878101
  H           0.18733886963972      4.23202449203179      1.52197833599964
  H           1.65562490654488      2.08818171725956     -0.52536016199654
  Cu          1.90666099008943      2.50394881359502      0.89957946808421
