18
Coordinates from ORCA-job orca E -1967.140888231102
  C          -3.07167306433275      2.08667142442363      1.87592658557355
  C          -1.88236397311155      2.69025461000442      1.47971045969079
  C          -0.65280928922598      2.14113242533786      1.84529973821626
  C          -0.63258471951959      0.97372547060017      2.61372878530316
  C          -1.81819257531231      0.37433863099470      3.01411486363171
  C          -3.04184891815247      0.92987663534889      2.64567146970642
  H          -4.01897132996380      2.52165237980735      1.58395881092300
  H          -3.96599910985434      0.45810957332572      2.95403988505827
  H          -1.90750312050409      3.59399607038807      0.88265879672754
  H           0.31380985486138      0.51990090470702      2.88466660810363
  H          -1.79037117668576     -0.53207835078704      3.60530721860227
  C           0.60573631423944      2.81675311341744      1.42657918161690
  N           1.50353466261255      3.22059231702754      2.52734357329048
  H           1.71518566285298      2.41437968163969      3.11087200027790
  H           1.00174192871966      3.87176451850752      3.13254780366191
  H           0.43451263620403      3.65893365088174      0.76615801251139
  H           1.43343289396429      1.86090116888140      0.57400049011010
  Cu          3.19682332320866      4.03355577549284      1.99045571699354
