18
Coordinates from ORCA-job orca E -1967.122420334900
  C          -2.98422784087667      1.87888096989964      1.66993064135151
  C          -1.84529843393923      2.63261973100186      1.41788097323755
  C          -0.62722693498379      2.28228589342580      2.00330651779670
  C          -0.55963679458028      1.16008349339599      2.83316507168053
  C          -1.69861791358708      0.40864261774185      3.08213548261995
  C          -2.91336206887652      0.76662747171208      2.50208899608789
  H          -3.92616938978993      2.16121165675205      1.21813643177519
  H          -3.79999984904322      0.17724059715967      2.69648902515352
  H          -1.89922273912756      3.49923968533664      0.77050609352128
  H           0.38280627664406      0.85565416187914      3.27284902260678
  H          -1.63862470009827     -0.46075774297745      3.72370062652746
  C           0.55120866971403      3.13170307793300      1.73704355477497
  N           1.49136153099851      3.33279475273395      2.78064289123521
  H           1.30370994604963      2.85468266599678      3.65110626450916
  H           1.80099094317820      4.28647487965783      2.90854213161585
  H           0.34136600994148      4.03131718262854      1.17548719841889
  H           1.08969295432247      2.36447816278154      0.28893248313422
  Cu          2.35371033405449      2.27128074294030      1.18109659395246
