18
Coordinates from ORCA-job orca E -1967.123643106705
  C          -2.96218880392717      1.84916800136159      1.62556520940709
  C          -1.82518385677688      2.61177149901944      1.40077572447432
  C          -0.62583037127767      2.29236224908380      2.04247620312404
  C          -0.57431361225993      1.18848917850498      2.89816638756809
  C          -1.71273509008006      0.42754993533244      3.11936786174053
  C          -2.90852195446487      0.75649442814865      2.48565191395637
  H          -3.88957268337420      2.10811214864336      1.13179401519827
  H          -3.79472174566067      0.16040144956371      2.66044582707824
  H          -1.86342010718001      3.46170214468433      0.73057237318867
  H           0.35156933432131      0.90503075848914      3.38396530359618
  H          -1.66731123901193     -0.42543208882610      3.78359540087990
  C           0.53718630896735      3.16305781106001      1.80853260021341
  N           1.50329165351133      3.31298953763384      2.80922161735179
  H           1.40411968743522      2.77255806423801      3.65694835653457
  H           1.89318330046335      4.23593720488248      2.94179440781389
  H           0.33519653845557      4.07146822572434      1.25916316220401
  H           1.03166886888629      2.40476782505671      0.10967761837744
  Cu          2.19004377197323      2.33803162739860      1.06532601729244
