18
Coordinates from ORCA-job orca E -1967.139228244162
  C          -2.94307928419990      1.80311388997571      1.56881436741695
  C          -1.83072671837708      2.61540604346737      1.42987261312985
  C          -0.66794533577971      2.35279107349022      2.16886305528531
  C          -0.63561194445948      1.25563749301066      3.04212116233191
  C          -1.75155720088728      0.44842119481097      3.17678151399223
  C          -2.90503648451213      0.71852633789730      2.44118766675859
  H          -3.83860436741777      2.01231310435820      0.99926065887629
  H          -3.77306503777197      0.08127270039791      2.54899766375786
  H          -1.84979362301840      3.45682913099006      0.74878184352683
  H           0.25346566004339      1.02014331327417      3.61272253066679
  H          -1.72555101923302     -0.39526137206827      3.85331893362728
  C           0.45135850479268      3.25664111159918      1.98856193850111
  N           1.55566722503032      3.27200494804845      2.80055521081651
  H           1.61946422902761      2.63614368141871      3.58583132296870
  H           2.04992920296569      4.14805350082634      2.92156421849889
  H           0.26565340554059      4.17936944829452      1.45302844229910
  H           1.21310176305781      2.30087683353331     -0.35713341596853
  Cu          1.93479102519875      2.47217756667490      0.92991027351396
