18
Coordinates from ORCA-job orca E -1967.159075403247
  C          -3.04146866004275      2.14179542724326      1.95234888654498
  C          -1.84238496303894      2.70814551980472      1.53095123879686
  C          -0.62672248471109      2.08645005417632      1.81678713200096
  C          -0.62946068313554      0.88557549912964      2.53037725053921
  C          -1.82459511338438      0.32145996184946      2.95546069340120
  C          -3.03423620546088      0.94922898507125      2.66670279279462
  H          -3.97889104152628      2.63099396914987      1.72029672581031
  H          -3.96635250820704      0.50539135965612      2.99223834456632
  H          -1.84976909160336      3.63738372431771      0.97355573334235
  H           0.30883619139274      0.38472834422383      2.74063756106577
  H          -1.81542735655317     -0.61252599511654      3.50277099209655
  C           0.65499575467751      2.72586257547457      1.38954935553734
  N           1.44173538319763      3.30347535696439      2.50836100268471
  H           1.62340852743088      2.58063067200463      3.20179638358278
  H           0.86633422931470      3.99851784096722      2.98399653777291
  H           0.50294669047750      3.49124581130101      0.63536209329203
  H           1.48868496017460      1.77020769312148      0.78480886804761
  Cu          3.14482637099828      4.12589320065995      2.02703840812226
