18
Coordinates from ORCA-job orca E -1967.124314017720
  C          -2.95994023445041      1.84607130586146      1.62124542926880
  C          -1.82352211522618      2.61035498230625      1.40042961517781
  C          -0.62642826062160      2.29442783931286      2.04854817742233
  C          -0.57655581169173      1.19176674349754      2.90621480655016
  C          -1.71445956817964      0.42903099091388      3.12313298957999
  C          -2.90794364816215      0.75483509302487      2.48337417320173
  H          -3.88558237286558      2.10236021456542      1.12288664894469
  H          -3.79380827320257      0.15737220379349      2.65514565651565
  H          -1.86005211487337      3.45897197355282      0.72849369959785
  H           0.34735314925269      0.91082254758335      3.39715905974486
  H          -1.67061338200499     -0.42280857250177      3.78889965257764
  C           0.53368889150933      3.16829173341011      1.81961808253103
  N           1.50401845648870      3.31189323016703      2.81306544786728
  H           1.41563292035056      2.76526190805463      3.65804750107506
  H           1.90531823872162      4.23031057345616      2.94365011025514
  H           0.33442934140426      4.07619415922881      1.26837721284734
  H           1.03246681822052      2.40365623169167      0.07956692215989
  Cu          2.16845796533080      2.34564684208077      1.05518481468204
