18
Coordinates from ORCA-job orca E -1967.187955553136
  C          -2.97367622489094      2.20608506859882      2.05472360206010
  C          -1.75792131247664      2.72020215645341      1.61881884892930
  C          -0.57668543296371      2.00091347028407      1.80461502314596
  C          -0.63280265805991      0.75460446576905      2.42986249662234
  C          -1.84751982391573      0.23749259200218      2.86606980494356
  C          -3.01988213572498      0.96370421079494      2.68038430946286
  H          -3.88460847669393      2.77056338776058      1.90099754182952
  H          -3.96674023810452      0.56025380734520      3.01595405112211
  H          -1.72535487648150      3.68443083689570      1.12433600772297
  H           0.27839471732053      0.18414167720133      2.57009293804434
  H          -1.88020871732353     -0.73280632994477      3.34516080393325
  C           0.74614375046616      2.57495166837304      1.37387131558922
  N           1.36578857586580      3.41693062471281      2.45163052190910
  H           1.47452113855643      2.84902702550910      3.29010761434748
  H           0.71515676667660      4.15693696758236      2.70756523660323
  H           0.62050842380000      3.21656234937068      0.50264565657719
  H           1.40108048065486      1.84679699636641      1.14831944084286
  Cu          3.08626604329549      4.22366902492382      2.02788478631323
