18
Coordinates from ORCA-job orca E -1967.192744762753
  C          -2.98307301764033      2.20133825781373      2.04610103117376
  C          -1.76953403149486      2.72119781785181      1.61023590921565
  C          -0.58383220402847      2.01142169336590      1.80419234622724
  C          -0.63306171322505      0.76908311100383      2.43813928147359
  C          -1.84508715087907      0.24698820833314      2.87504836949934
  C          -3.02224716678592      0.96345815271469      2.68061982518978
  H          -3.89744876334882      2.75828423542120      1.88556400639971
  H          -3.96716315533801      0.55548793154182      3.01618288121614
  H          -1.74211815507951      3.68245210423672      1.10980495841232
  H           0.28168616347004      0.20564992006285      2.58311957645698
  H          -1.87234614859464     -0.72021801829348      3.36067595017794
  C           0.73270321985480      2.59584179859498      1.37396043961384
  N           1.36988631839119      3.40846645380796      2.45994934225893
  H           1.48889627964354      2.82153558119868      3.28366718154028
  H           0.72458929711418      4.14437167965888      2.74185975175521
  H           0.60611433692512      3.24969186546510      0.51305981692689
  H           1.44742382178381      1.79879404578329      1.10025559260720
  Cu          3.08707206923245      4.22061516143766      2.03060373985383
