18
Coordinates from ORCA-job orca E -1967.147005402666
  C          -3.06483063040230      2.10148894902767      1.89663954933016
  C          -1.87338322365105      2.69544959748829      1.49180978670746
  C          -0.64631049115626      2.12718637545731      1.83486387553953
  C          -0.63030768411060      0.95103670054651      2.58960666706341
  C          -1.81774349887734      0.36099754971683      2.99880306238444
  C          -3.03908179799163      0.93548185623721      2.65255135800042
  H          -4.01057014905067      2.55050444589260      1.62128193523399
  H          -3.96491701987504      0.47099826993413      2.96692029454156
  H          -1.89528493878067      3.60577113353900      0.90463227199960
  H           0.31538771255346      0.48532883333094      2.84279067635863
  H          -1.79341614697944     -0.55260625377148      3.57899890947802
  C           0.61924850377750      2.79228128360524      1.41235565044254
  N           1.48654883994386      3.24193784011762      2.52315339247552
  H           1.68761383136022      2.45605105916031      3.13766673268148
  H           0.96379409528913      3.90755161505009      3.09343008019580
  H           0.45265882924186      3.61580044153926      0.72694065206680
  H           1.44646077220295      1.83619783205451      0.63335032413955
  Cu          3.18659299650642      4.05300247107289      2.00724478135989
