18
Coordinates from ORCA-job orca E -1967.132527991768
  C          -2.96455146001673      2.20707128589925      2.05954793808954
  C          -1.74731328150378      2.71726165873296      1.62370771902661
  C          -0.56948075454786      1.99165795642988      1.80459802302908
  C          -0.63007839285336      0.74271552280413      2.42404386634702
  C          -1.84675531319378      0.22889121757157      2.85949234100347
  C          -3.01567831709380      0.96167128518663      2.67932073426289
  H          -3.87314298568999      2.77648225996750      1.91020806586596
  H          -3.96390928769940      0.56139630491879      3.01484222733662
  H          -1.71102785311682      3.68322921791198      1.13281029464625
  H           0.27856113623753      0.16749842352763      2.56232176638513
  H          -1.88324630423024     -0.74324821646747      3.33457307175636
  C           0.76012104192420      2.55334023393453      1.37303290249606
  N           1.36676344224721      3.41970392133813      2.44275156425245
  H           1.45709624079955      2.87062926814425      3.29601427299221
  H           0.71825604485824      4.16996128125436      2.67006803671853
  H           0.63401272813130      3.18589044896268      0.49455076744067
  H           1.31280241381086      1.93752973708338      1.20172694723382
  Cu          3.10003090193735      4.20277819279849      2.02942946111589
