18
Coordinates from ORCA-job orca E -1967.123596359040
  C          -2.99338234391939      1.88898672083922      1.68656839840063
  C          -1.85411357697409      2.63926823436025      1.42391524616517
  C          -0.62973945107657      2.27838358620777      1.98883296291912
  C          -0.55630633514636      1.14966899764921      2.80940034385837
  C          -1.69540242773325      0.40230034478832      3.06974253739449
  C          -2.91652629650255      0.77060550756149      2.50963164120003
  H          -3.94016250412726      2.17923196987025      1.25009926215489
  H          -3.80335681678845      0.18432749440135      2.71244247780742
  H          -1.91327663766105      3.51137396126094      0.78441151419913
  H           0.39160001642531      0.83871172614413      3.23261180811660
  H          -1.63076338070175     -0.47209352255633      3.70407635541182
  C           0.55292678887689      3.12047385533929      1.71148757489077
  N           1.49037037096967      3.33571820313942      2.76718929805714
  H           1.26954123503068      2.87866161439550      3.64168369202542
  H           1.76489075176608      4.30047369266120      2.89504977407049
  H           0.33930475166605      4.01882103248218      1.14862676908605
  H           1.12086932777119      2.35238567657535      0.34777685480083
  Cu          2.42598652812515      2.25716090487960      1.22949348944068
