18
Coordinates from ORCA-job orca E -1967.122714114963
  C          -2.98696657237406      1.88189566152752      1.67485327179476
  C          -1.84795516524654      2.63470085801924      1.41974189656565
  C          -0.62795893881514      2.28123336989874      1.99903980667190
  C          -0.55859031486938      1.15709171023884      2.82614814498647
  C          -1.69758213389522      0.40676991607055      3.07840606622843
  C          -2.91425527473675      0.76774871970120      2.50421471787520
  H          -3.93037480589074      2.16655215877943      1.22758345627501
  H          -3.80091441750376      0.17917179836442      2.70098422066992
  H          -1.90350348495380      3.50298738366097      0.77474064872278
  H           0.38551148228245      0.85074244688566      3.26096378452183
  H          -1.63614496085037     -0.46416246409402      3.71776634646320
  C           0.55190574485873      3.12828598342660      1.72913676534594
  N           1.49135549038990      3.33357089660275      2.77640583862436
  H           1.29323255743523      2.86210554901987      3.64831740329033
  H           1.79013359253831      4.29078782017900      2.90444765175776
  H           0.34071191565640      4.02765782915158      1.16749317344385
  H           1.09830920844725      2.36130095941081      0.30779853682525
  Cu          2.37554607752780      2.26601940315601      1.19499826993643
