18
Coordinates from ORCA-job orca E -1967.126533441246
  C          -2.95434015066195      1.83700949950121      1.60905428441185
  C          -1.82025578710477      2.60715152203497      1.40018498985279
  C          -0.62953553436787      2.30164652061466      2.06625776761950
  C          -0.58408979305329      1.20241612400248      2.92951129735450
  C          -1.71987985655731      0.43368888146811      3.13388742911683
  C          -2.90658952242921      0.74955627737586      2.47651073919565
  H          -3.87485882960020      2.08499307629456      1.09729263122753
  H          -3.79086562809716      0.14715484677080      2.63893176001526
  H          -1.85239532666206      3.45212728109951      0.72353047685411
  H           0.33400036236384      0.92907667843166      3.43524313117452
  H          -1.68008653973634     -0.41491911155243      3.80394192311904
  C           0.52353360007109      3.18238311021450      1.84827694774414
  N           1.51085180794298      3.30572387359441      2.81890200263017
  H           1.44938650743982      2.74308830970025      3.65590500666630
  H           1.93675991134255      4.21371614504983      2.94648759731518
  H           0.32953570213769      4.09106841188507      1.29615694640080
  H           1.03403969715591      2.40414620138537      0.00492246790115
  Cu          2.11724937981654      2.36443235212858      1.02804260140004
