18
Coordinates from ORCA-job orca E -1967.137791444523
  C          -3.07684809241773      2.07172460841780      1.85525070102416
  C          -1.88954042825424      2.68467268690297      1.46820175132580
  C          -0.65836383119425      2.15412345099595      1.85590411388314
  C          -0.63520971395439      0.99551747731402      2.63768293308980
  C          -1.81911561071902      0.38704721222406      3.02910101695523
  C          -3.04410723976200      0.92394726966157      2.63833333091794
  H          -4.02509574801026      2.49288155758884      1.54658902480091
  H          -3.96677803277560      0.44523391506480      2.94032156918227
  H          -1.91704360564724      3.58181005531278      0.86139444750732
  H           0.31159462551088      0.55435417634237      2.92702762967614
  H          -1.78857981520231     -0.51197347221218      3.63132194635384
  C           0.59507482057269      2.83780381090287      1.43941008944205
  N           1.52092198789073      3.19890639020472      2.52955772382206
  H           1.74160812974721      2.37429192327343      3.08298757753625
  H           1.03950348693010      3.83482974392978      3.16681558704714
  H           0.41806541357330      3.69934224402768      0.80644816293746
  H           1.40946310706802      1.89628356242333      0.52434926438551
  Cu          3.20691054664447      4.01366338762418      1.97234313011183
