18
Coordinates from ORCA-job orca E -1967.122922131133
  C          -2.96471075005129      1.85232581033926      1.63010161852922
  C          -1.82726665567701      2.61348651743472      1.40148865243046
  C          -0.62557627167764      2.29060667264964      2.03657377807265
  C          -0.57229374006439      1.18540782530704      2.89013133139885
  C          -1.71109856536858      0.42607225063238      3.11553767093373
  C          -2.90919866692662      0.75803744804564      2.48790331582417
  H          -3.89384691189102      2.11384407984330      1.14096879392684
  H          -3.79560100293378      0.16308485352690      2.66556267529937
  H          -1.86733896456799      3.46483396637839      0.73315920957171
  H           0.35557896405464      0.89944181413914      3.37068629104241
  H          -1.66396059196655     -0.42817101103545      3.77805389817384
  C           0.54047664704244      3.15781595351188      1.79710758718539
  N           1.50327201060176      3.31367968861337      2.80462355320638
  H           1.39248008512964      2.77988468168909      3.65509747224175
  H           1.88039931261334      4.24152270129604      2.93948616049473
  H           0.33552211691954      4.06704139360071      1.25015187709009
  H           1.03230440910672      2.40529786156886      0.14028927777579
  Cu          2.21331857565706      2.33024749245839      1.07611683680185
