18
Coordinates from ORCA-job orca E -1967.135902624223
  C          -2.94516889770695      1.81358800964548      1.57958710184118
  C          -1.82499451078048      2.61232967155221      1.41963438250616
  C          -0.65376733618314      2.33694352019510      2.13764739176230
  C          -0.61818193393500      1.23901291060062      3.00762382036407
  C          -1.74093234894425      0.44334115910626      3.16232962856470
  C          -2.90490221548484      0.72780515949873      2.45014365229048
  H          -3.84857681374524      2.03504193566487      1.02720293609164
  H          -3.77850768587152      0.10109463195656      2.57361904988120
  H          -1.84737400522388      3.45444129663037      0.73937519902778
  H           0.28012071733284      0.99017287158484      3.55816625263925
  H          -1.71065368685212     -0.40255514432107      3.83603391022311
  C           0.47584493052025      3.23429807723103      1.94628125974796
  N           1.54320083984786      3.28631222489098      2.81299246903207
  H           1.57056632330874      2.67651387959282      3.61988953458492
  H           2.02121346535553      4.17093411522474      2.93143652812810
  H           0.29090719909469      4.14910551623603      1.39826347358947
  H           1.13456669718215      2.33121210803245     -0.25070446334134
  Cu          1.97909926208551      2.43486805667762      0.96351787306649
