18
Coordinates from ORCA-job orca E -1967.133747470986
  C          -2.94954607974133      1.82283609488517      1.59124569102660
  C          -1.82460086943904      2.61242328757278      1.41564918422645
  C          -0.64622180618008      2.32626035770515      2.11582404704639
  C          -0.60638464539834      1.22571827634211      2.98114200044380
  C          -1.73327331057391      0.43825371415857      3.15088960093747
  C          -2.90584938482079      0.73470369836778      2.45843167845519
  H          -3.85945961595067      2.05415480969984      1.05367885105190
  H          -3.78303128776120      0.11556253882603      2.59412314326720
  H          -1.85086523182738      3.45699308419033      0.73851920013331
  H           0.29935499627770      0.96696203310246      3.51510558190462
  H          -1.69902409979803     -0.41047858234793      3.82089487997151
  C           0.48899287330874      3.22004391505041      1.91819745581287
  N           1.53006114646173      3.29730175803940      2.81914098394486
  H           1.53064904557878      2.70581594356154      3.63954418541758
  H           1.99677879412287      4.18779809448946      2.93537415543339
  H           0.30483568221342      4.12870756318590      1.36056759875203
  H           1.11528943202195      2.34036067746531     -0.18587833545248
  Cu          2.01475436150575      2.41104273570529      0.99059009762680
