18
Coordinates from ORCA-job orca E -1967.150040147147
  C          -3.06285319437671      2.10450095133492      1.90008724270031
  C          -1.87058688810268      2.69583504533522      1.49373567194120
  C          -0.64437856379483      2.12354890952711      1.83278760448238
  C          -0.63007527632780      0.94605132095897      2.58531893951657
  C          -1.81827800315980      0.35851455057450      2.99622293879735
  C          -3.03874754715818      0.93697068751717      2.65374722014726
  H          -4.00794660363927      2.55661512588048      1.62755738540227
  H          -3.96518192953582      0.47446974271996      2.96928618293073
  H          -1.89125775225443      3.60727779745154      0.90821564675471
  H           0.31495040839381      0.47761335694725      2.83605612014697
  H          -1.79517390263589     -0.55614213708365      3.57483180420204
  C           0.62372464845358      2.78496178926864      1.40809145868994
  N           1.48430710045826      3.24483291994619      2.52148564951581
  H           1.68632757730473      2.46282556490172      3.14066523063689
  H           0.95595080994000      3.91052071092587      3.08622847370668
  H           0.45609281710620      3.60653455697962      0.72021629990734
  H           1.44304883368135      1.83735712527486      0.64850059106562
  Cu          3.18253746564789      4.06217198153856      2.01000553945472
