18
Coordinates from ORCA-job orca E -1967.143560767055
  C          -2.98422817857199      1.81731417054616      1.60142283829597
  C          -1.89381187287613      2.66167857022682      1.49792087537728
  C          -0.72289031074471      2.39633130467472      2.23122598310966
  C          -0.66529979209986      1.26578317748879      3.06759168669033
  C          -1.76012071065324      0.43108123718781      3.16618911648493
  C          -2.91819737420540      0.70295467959289      2.43349699113578
  H          -3.88382414515705      2.02351618928833      1.03775639749972
  H          -3.77021227134571      0.04061468847363      2.51480685198179
  H          -1.93123811297377      3.52968763004467      0.85223690728497
  H           0.22626473970640      1.03573922099361      3.63586906159819
  H          -1.71958506833386     -0.43628144924210      3.81095828395607
  C           0.35980930447231      3.32238530597759      2.07731787970553
  N           1.53208231133036      3.28558382547939      2.75354386865539
  H           1.67739131011709      2.61578002787776      3.50152926836616
  H           2.06486827427186      4.14491728325978      2.84200283813706
  H           0.17674328319490      4.23682395246504      1.52541979233459
  H           1.72365167730050      2.05873798991901     -0.53326724264999
  Cu          1.91105693656834      2.50181219574608      0.89701860203647
