18
Coordinates from ORCA-job orca E -1967.133291355477
  C          -2.94995960074808      1.82401181334728      1.59277559251443
  C          -1.82422274451014      2.61201250813404      1.41445681359161
  C          -0.64482581428253      2.32431933506568      2.11195684423125
  C          -0.60448187853508      1.22377879190047      2.97701253912708
  C          -1.73209197826715      0.43777017261082      3.14946672068887
  C          -2.90589720915467      0.73587834593788      2.45991238148651
  H          -3.86080943414931      2.05672711136055      1.05737992465739
  H          -3.78369907598524      0.11809392966386      2.59776254227372
  H          -1.85098095586746      3.45666591983698      0.73743712020464
  H           0.30233839640457      0.96375755277376      3.50860074173912
  H          -1.69735529110657     -0.41105444735966      3.81934408508539
  C           0.49155057828885      3.21736008920119      1.91319463933012
  N           1.52807642676101      3.29835806336066      2.81994311057249
  H           1.52385526210725      2.70940993187536      3.64206732554558
  H           1.99271901312803      4.18981466128656      2.93647194660966
  H           0.30730173182804      4.12550611387592      1.35491271335085
  H           1.10980708390908      2.34484999066928     -0.17379120405023
  Cu          2.02113549017957      2.40720011645895      0.99413616304101
