18
Coordinates from ORCA-job orca E -1967.184916021467
  C          -2.97260926599978      2.20619560761260      2.05499822151652
  C          -1.75660234959420      2.71972990150055      1.61914260648222
  C          -0.57576254538433      1.99971720850565      1.80461816918428
  C          -0.63253066735863      0.75323368956768      2.42942752697502
  C          -1.84753480234128      0.23662477971270      2.86550721628553
  C          -3.01947545504641      0.96358290113262      2.68020531379229
  H          -3.88323902810518      2.77125066584661      1.90158044758074
  H          -3.96652971065812      0.56057973597536      3.01576838603021
  H          -1.72351755010414      3.68407568093229      1.12491721600312
  H           0.27835523759122      0.18222664508823      2.56962414098863
  H          -1.88073018716986     -0.73379629557082      3.34432004321584
  C           0.74789745108613      2.57229816879144      1.37363621078825
  N           1.36618845618242      3.41681938912492      2.45071771884919
  H           1.47387226785413      2.85053335309641      3.29044605065600
  H           0.71539722490803      4.15733321208450      2.70445878232244
  H           0.62206391979687      3.21321640894996      0.50175539540466
  H           1.39000608627766      1.85825464534792      1.15440267036353
  Cu          3.08721091806596      4.22258430230010      2.02751388356014
