18
Coordinates from ORCA-job orca E -1967.135489263855
  C          -2.94626779324401      1.81580390330554      1.58229076076911
  C          -1.82505357460264      2.61261526789967      1.41909933451954
  C          -0.65219028508953      2.33475457186812      2.13313072924257
  C          -0.61559445142281      1.23598605812250      3.00177464052689
  C          -1.73922338800260      0.44201569582216      3.15954786828708
  C          -2.90515815914566      0.72926354239835      2.45179723759333
  H          -3.85115819435810      2.03953162912274      1.03323766556979
  H          -3.77952760012395      0.10412036297212      2.57777613190148
  H          -1.84835494245812      3.45545452123753      0.73976266626219
  H           0.28440111039104      0.98470391020893      3.54851797970470
  H          -1.70798184643870     -0.40473219041014      3.83215197651266
  C           0.47850858497133      3.23140532715271      1.94041667475190
  N           1.54033906573575      3.28921745255861      2.81447477536089
  H           1.56223101134018      2.68374433122474      3.62468673379828
  H           2.01599214692588      4.17514648782472      2.93195884515020
  H           0.29379865347039      4.14457289219321      1.38974356665619
  H           1.13121795439804      2.33139441138423     -0.23719112770591
  Cu          1.98648170765367      2.42946182511388      0.96986354109864
