18
Coordinates from ORCA-job orca E -1967.122124429106
  C          -2.97858297885212      1.87159443217061      1.65852817178393
  C          -1.83994244264288      2.62734901598115      1.41302700384685
  C          -0.62626086154232      2.28455831845558      2.01239976446792
  C          -0.56265867668868      1.16717548397128      2.84899456404677
  C          -1.70168177293915      0.41353171064871      3.09132501286304
  C          -2.91195782187303      0.76430697821788      2.49790164164685
  H          -3.91709692930210      2.14821209602877      1.19623191223821
  H          -3.79857584026659      0.17335486127519      2.68754183007325
  H          -1.89010865035583      3.48974461291707      0.75972642827026
  H           0.37589084897630      0.86738016165948      3.29988590219161
  H          -1.64509660192908     -0.45175630298084      3.73869899883777
  C           0.54904099484264      3.13882472313558      1.75343483297247
  N           1.49401787248100      3.32819846668133      2.78797447090595
  H           1.32847397075348      2.83453075638115      3.65400364077541
  H           1.82335756034475      4.27482161348495      2.91806565482845
  H           0.34084153416816      4.04080312809314      1.19540218939906
  H           1.07055027083719      2.37534619460004      0.24998758660704
  Cu          2.31224952398858      2.28648374927813      1.14991039424431
