18
Coordinates from ORCA-job orca E -1967.129461604302
  C          -2.95070522840679      1.82950481780516      1.59949675724355
  C          -1.82004051568244      2.60733220446828      1.40438007694176
  C          -0.63520150100299      2.31133104324958      2.08676126808782
  C          -0.59308920037649      1.21309765054363      2.95272705336653
  C          -1.72555605696603      0.43670331644954      3.14266583276941
  C          -2.90572856809946      0.74324822093655      2.46883220246857
  H          -3.86633601789931      2.06962166686253      1.07548299414783
  H          -3.78738938269410      0.13416144341187      2.62014835641184
  H          -1.84885905922351      3.45074657525191      0.72574256815843
  H           0.31930717849286      0.94672116301055      3.47195298660548
  H          -1.68877577592745     -0.41074158392423      3.81428268677316
  C           0.51055808977786      3.19803071287123      1.87828208468930
  N           1.51886118899079      3.30096785455269      2.82150635084619
  H           1.48377372834067      2.72537073495041      3.65157468545259
  H           1.96604716949873      4.19984756444249      2.94384902147346
  H           0.32206254000175      4.10681810927438      1.32374225211474
  H           1.05530015043673      2.38936276936895     -0.07710458543768
  Cu          2.06823126073938      2.38233573647397      1.00871740788646
