18
Coordinates from ORCA-job orca E -1967.176159410826
  C          -2.97031963919423      2.20652797605223      2.05594265952005
  C          -1.75387495767613      2.71889184172999      1.62007043198604
  C          -0.57390924149109      1.99728476858425      1.80453929468772
  C          -0.63194916767945      0.75027365887771      2.42816469920315
  C          -1.84750090861294      0.23466507250129      2.86408479909426
  C          -3.01852887764092      0.96329762067258      2.67993968220757
  H          -3.88031366110367      2.77285575362825      1.90345339635118
  H          -3.96596073307977      0.56120908699347      3.01553314414150
  H          -1.71975185344410      3.68357271421920      1.12655803781896
  H           0.27825749239668      0.17805133851473      2.56807159844824
  H          -1.88173482625666     -0.73611679363652      3.34209559661031
  C           0.75158391715057      2.56668460245653      1.37319880516290
  N           1.36661770681144      3.41707338945143      2.44867980233989
  H           1.47114703657937      2.85476646964781      3.29152400191548
  H           0.71568246636607      4.15918477493784      2.69665571870610
  H           0.62526829060784      3.20594010561736      0.49987420560482
  H           1.36819688224352      1.88081136707874      1.16730718387490
  Cu          3.08955007402397      4.21948625267180      2.02734694232553
