18
Coordinates from ORCA-job orca E -1967.138514527757
  C          -2.94263650373907      1.80447884060172      1.56971364819715
  C          -1.82860326276781      2.61399247850463      1.42679152835032
  C          -0.66466300292279      2.34944157296851      2.16270513117901
  C          -0.63231530477007      1.25291504888714      3.03625711833240
  C          -1.74978284093570      0.44809521763438      3.17478778869851
  C          -2.90480652858425      0.72037640208144      2.44268285931707
  H          -3.83929650309969      2.01556225155995      1.00261069386231
  H          -3.77406588364750      0.08531018346031      2.55342723590826
  H          -1.84780519438757      3.45487956717770      0.74502284957731
  H           0.25814599078247      1.01519919526411      3.60383628501546
  H          -1.72337982678193     -0.39538503020484      3.85158458186848
  C           0.45704923244626      3.25162856611520      1.97997397701540
  N           1.55491817780547      3.27373001681492      2.80307744190842
  H           1.61172372233659      2.64225929077896      3.59225656047520
  H           2.04497795545034      4.15183718588838      2.92515866615335
  H           0.27030760433250      4.17355410963967      1.44360117073535
  H           1.19040206292647      2.30989910224410     -0.33548797158709
  Cu          1.94229010555642      2.46668600058339      0.93504043499270
