18
Coordinates from ORCA-job orca E -1967.181865787860
  C          -3.00057712325204      2.18900042634816      2.02621592786065
  C          -1.79133951387501      2.72108287237788      1.59192981423176
  C          -0.59679568325208      2.03174734325289      1.80495709851781
  C          -0.63233722691561      0.79815686425823      2.45724087731539
  C          -1.83921454007615      0.26543774390129      2.89374285028982
  C          -3.02590015358170      0.96095844898520      2.67934710128374
  H          -3.92181677472613      2.72971002610817      1.85028851910376
  H          -3.96701273820291      0.54348271918409      3.01386140306697
  H          -1.77416950511456      3.67566895851613      1.07877572259706
  H           0.28950524882857      0.24978090602612      2.61412861685632
  H          -1.85572325728150     -0.69484934628579      3.39335552975198
  C           0.70778154385547      2.63523373851175      1.37657554400032
  N           1.38250858888220      3.38788638993645      2.47514776908465
  H           1.51687194252961      2.76517095143547      3.26951547919106
  H           0.75311552013043      4.11829259283182      2.80611606943387
  H           0.58058435683815      3.31218909265854      0.53568818646464
  H           1.49879437635262      1.74549783648769      1.01230404116154
  Cu          3.09818493886109      4.20001243546473      2.03384944978733
