18
Coordinates from ORCA-job orca E -1967.192157328164
  C          -2.98710922563960      2.19799638645409      2.04052154215732
  C          -1.77450910129253      2.72067422851473      1.60507282562213
  C          -0.58659488199319      2.01595651557038      1.80413280227106
  C          -0.63258365090168      0.77599937313467      2.44310412836132
  C          -1.84341992470540      0.25151361458050      2.88000831653047
  C          -3.02293974837208      0.96279724189483      2.68019187729891
  H          -3.90318886380990      2.75090120659196      1.87578335704664
  H          -3.96697325282873      0.55266372722066      3.01559502785725
  H          -1.74952765835838      3.68008197312120      1.10108801444806
  H           0.28391270736896      0.21625931553557      2.59139739367826
  H          -1.86808089195564     -0.71377815915301      3.36956545154038
  C           0.72738283721875      2.60438256943293      1.37375395838019
  N           1.37403133875270      3.40224245220643      2.46348519414951
  H           1.49729204785278      2.80608609166563      3.27986899734692
  H           0.73260508768172      4.13679682666270      2.75812106660372
  H           0.60003634781301      3.26477764623771      0.51828860935622
  H           1.45147770160316      1.79437598477369      1.08186192458466
  Cu          3.09064913156651      4.21473300555408      2.03119951276563
