18
Coordinates from ORCA-job orca E -1967.129030617266
  C          -2.95103633479591      1.83044970353138      1.60063447228257
  C          -1.81977050709817      2.60698290678034      1.40330548113921
  C          -0.63413822152248      2.30968422941934      2.08344673598712
  C          -0.59163092520466      1.21156045873621      2.94931437084106
  C          -1.72470897744207      0.43646958006632      3.14159659254008
  C          -2.90579927036234      0.74428773453587      2.47005413711839
  H          -3.86733719041468      2.07165120232272      1.07827673253538
  H          -3.78792718364624      0.13633708996604      2.62317790422180
  H          -1.84896746746112      3.45039201566152      0.72465966959334
  H           0.32158468105069      0.94419320436278      3.46664595524104
  H          -1.68758607864075     -0.41092872079680      3.81326372733986
  C           0.51285978315402      3.19545743172281      1.87353144818681
  N           1.51781777769492      3.30144372030767      2.82134256951416
  H           1.47863691366146      2.72751298176297      3.65231623551947
  H           1.96181961455067      4.20166562992834      2.94487174943338
  H           0.32318842552106      4.10448060762139      1.31989704089277
  H           1.05005456754978      2.39314133746273     -0.06423415951644
  Cu          2.07540039340605      2.37967888660785      1.01093933712942
