18
Coordinates from ORCA-job orca E -1967.143571675743
  C          -2.98857959461116      1.81929963009802      1.60533827820865
  C          -1.90010753274987      2.66630770722251      1.50433083867987
  C          -0.72771057154148      2.40011603297199      2.23558619180596
  C          -0.66712468576225      1.26633418718929      3.06795671393230
  C          -1.76003724173308      0.42928602231215      3.16400428710476
  C          -2.91923826909989      0.70184357328532      2.43297538511323
  H          -3.88909667659679      2.02560647235520      1.04322103418238
  H          -3.76974648909407      0.03732114838744      2.51228329034252
  H          -1.93972891286392      3.53684328705044      0.86221346584146
  H           0.22537903787682      1.03630424801400      3.63471740921359
  H          -1.71759178327499     -0.44054564789044      3.80528656619939
  C           0.35230181780872      3.32765460977451      2.08305883906896
  N           1.52876215823996      3.28733933230404      2.74896259637162
  H           1.67955951753984      2.61608204031122      3.49475285900190
  H           2.06505561457699      4.14506367109833      2.83310168186992
  H           0.16971717637149      4.24080814767003      1.52885593748370
  H           1.76745284920376      2.03958344165282     -0.53767488823908
  Cu          1.91319358570994      2.49921209619308      0.89406951381879
