18
Coordinates from ORCA-job orca E -1967.186320366332
  C          -2.99596780250021      2.19227722743893      2.03134702078306
  C          -1.78556313568475      2.72109628767858      1.59663735688460
  C          -0.59331067790246      2.02633130956194      1.80460879548149
  C          -0.63247243437383      0.79043534615668      2.45214951792863
  C          -1.84070921048685      0.26057419998540      2.88888449249155
  C          -3.02492362610439      0.96164397790757      2.67968254245204
  H          -3.91543963717749      2.73726258910566      1.85937487965254
  H          -3.96705463092697      0.54669860565622      3.01449222764871
  H          -1.76569255973441      3.67742042418044      1.08673753078527
  H           0.28751614590338      0.23804287377524      2.60595450377275
  H          -1.86001800793651     -0.70151296581181      3.38493312536924
  C           0.71472038242586      2.62433835578324      1.37528520571385
  N           1.37945015895005      3.39309634610198      2.47110091825641
  H           1.51019032942737      2.77960303621445      3.27326045755777
  H           0.74560864639558      4.12494168214981      2.78944212049214
  H           0.58711482116217      3.29581481584163      0.52952749998819
  H           1.48375979707500      1.76068172727345      1.03661042809747
  Cu          3.09525144148892      4.20571416099938      2.03301137664295
