18
Coordinates from ORCA-job orca E -1967.192538300430
  C          -2.97913751284434      2.20351017629755      2.04977589500198
  C          -1.76465571863413      2.72083698464505      1.61378306358975
  C          -0.58084960950007      2.00699367945703      1.80423865730465
  C          -0.63301639460980      0.76300348591867      2.43458326744634
  C          -1.84618415933064      0.24308931873202      2.87130169302171
  C          -3.02130303039082      0.96373215000694      2.68060152352469
  H          -3.89204003322274      2.76370226044233      1.89216337312010
  H          -3.96703876683259      0.55772583728783      3.01624768518074
  H          -1.73502516093553      3.68335110989139      1.11584873990298
  H           0.28022992822853      0.19658315032827      2.57757356600388
  H          -1.87574886182864     -0.72540784164297      3.35422353397498
  C           0.73848382884157      2.58686004192874      1.37366185125736
  N           1.36798172583804      3.41200561758327      2.45652854554071
  H           1.48326571931428      2.83280543941045      3.28628374631790
  H           0.71998915874645      4.14916886126112      2.72797199477764
  H           0.61191863660921      3.23598580506689      0.50871675449862
  H           1.42963552729981      1.81732265106570      1.11999567136347
  Cu          3.08595472325189      4.22319127231849      2.02954043817112
