18
Coordinates from ORCA-job orca E -1967.124706870467
  C          -2.95873539110530      1.84424313609857      1.61874441687948
  C          -1.82270035377017      2.60955163604722      1.40018098537350
  C          -0.62688462059519      2.29569026150882      2.05193335424603
  C          -0.57793082960728      1.19378721732281      2.91081087028375
  C          -1.71549381462411      0.42997597194940      3.12532607213922
  C          -2.90765212527605      0.75386379719840      2.48207642871276
  H          -3.88337062110005      2.09892650080112      1.11772152738842
  H          -3.79327733419558      0.15555103582271      2.65211036115606
  H          -1.85831016923208      3.45738436861685      0.72722107716930
  H           0.34483663179621      0.91435247080501      3.40472341589146
  H          -1.67251469506174     -0.42114459099158      3.79205142810820
  C           0.53173344797488      3.17109162425196      1.82542709981095
  N           1.50506292513276      3.31076828657535      2.81458806444847
  H           1.42222630528215      2.76077805193071      3.65797687446889
  H           1.91177121448511      4.22694612493328      2.94453722635371
  H           0.33363969678455      4.07903399858104      1.27380426703120
  H           1.03231600248642      2.40406863521446      0.06437125274610
  Cu          2.15774373062573      2.34959147333324      1.04943527779183
