18
Coordinates from ORCA-job orca E -1967.128266948561
  C          -3.01789055141384      1.90866816674543      1.72300084854488
  C          -1.87894982209187      2.65086748683374      1.43462117746337
  C          -0.64123779299193      2.27003848262911      1.95535709393807
  C          -0.55524659037863      1.12971973327170      2.75888362611077
  C          -1.69362630358709      0.39130489113433      3.04644347975854
  C          -2.92777257041714      0.77960569571191      2.52959198589636
  H          -3.97468184978013      2.21447516715775      1.32014530107530
  H          -3.81435094051717      0.20060720933185      2.75346917320283
  H          -1.94930072534089      3.53308473733122      0.81028457265864
  H           0.40340930349514      0.80612600710759      3.14720606665710
  H          -1.61913206406031     -0.49163765178959      3.66781836245994
  C           0.54721160779969      3.09693843570161      1.65332303038561
  N           1.49036645585787      3.33307519466581      2.72912041496397
  H           1.21570048102215      2.90476709239463      3.60448983392687
  H           1.68675563452306      4.31660423068898      2.86717591371770
  H           0.32941105314474      3.99682382811094      1.09289125859324
  H           1.20008578568483      2.32822098557075      0.45663856320093
  Cu          2.62170888905187      2.26517030740131      1.36257929744483
