18
Coordinates from ORCA-job orca E -1967.189836210183
  C          -2.99239429420608      2.19423282977595      2.03435964890346
  C          -1.78106440950772      2.72060027141024      1.59944306130717
  C          -0.59046766730735      2.02208083600252      1.80433334476170
  C          -0.63233768859860      0.78480580450710      2.44894068784163
  C          -1.84162912517244      0.25712662971371      2.88574040852874
  C          -3.02404420752437      0.96203802743942      2.67975474948485
  H          -3.91056652799767      2.74219300129206      1.86485055528940
  H          -3.96694207099012      0.54902778073468      3.01481307145709
  H          -1.75916496261458      3.67795949088023      1.09153361257163
  H           0.28631089390845      0.22963411096632      2.60095340426617
  H          -1.86302998121404     -0.70603018927141      3.37963080195374
  C           0.72008154665779      2.61597633159132      1.37428044811519
  N           1.37807942711949      3.39578870768291      2.46804384074298
  H           1.50630347758465      2.78867035830133      3.27547838315636
  H           0.74136611696130      4.12855918152437      2.77781278070604
  H           0.59222829800133      3.28372296176127      0.52513740401275
  H           1.46573347202241      1.77939259312591      1.05591609765385
  Cu          3.09399770287800      4.20868127256084      2.03201769924590
