18
Coordinates from ORCA-job orca E -1967.190130676532
  C          -2.97463303975929      2.20611120489762      2.05470719630286
  C          -1.75912948044870      2.72075196950329      1.61868977481428
  C          -0.57757621595943      2.00205366259857      1.80458106356383
  C          -0.63308235560154      0.75581922399740      2.43006955526550
  C          -1.84752318547412      0.23822428611813      2.86643199184459
  C          -3.02024843080240      0.96383175484683      2.68059005594239
  H          -3.88582658390825      2.77013278690772      1.90087719868864
  H          -3.96692068603513      0.55996132358734      3.01618142651216
  H          -1.72701985036768      3.68494819131446      1.12410141751121
  H           0.27837760830790      0.18580808270163      2.57025388113321
  H          -1.87975186832890     -0.73203062725924      3.34564300983659
  C           0.74464237203104      2.57719895243562      1.37406259880618
  N           1.36515669004790      3.41731902112003      2.45240325896242
  H           1.47456672546206      2.84821481311295      3.28996170439381
  H           0.71461272055966      4.15695358371885      2.70985813130219
  H           0.61897514171702      3.21948163499047      0.50349843391655
  H           1.41254219372685      1.83491742342893      1.14264746784772
  Cu          3.08529824483347      4.22476271197813      2.02848183335449
