18
Coordinates from ORCA-job orca E -1967.126065404749
  C          -2.95532587840280      1.83870459350137      1.61129364034513
  C          -1.82070806175145      2.60756239420588      1.39996853859387
  C          -0.62877064544257      2.30006352623153      2.06264843760515
  C          -0.58251831628815      1.20029141852728      2.92496925416045
  C          -1.71880332304753      0.43285078918915      3.13190260629506
  C          -2.90683297731216      0.75066004520785      2.47791217226122
  H          -3.87684511672586      2.08831496752200      1.10211015667171
  H          -3.79149562330378      0.14934796096130      2.64227413926738
  H          -1.85364030679245      3.45315428204143      0.72410645026497
  H           0.33669934637903      0.92549726776367      3.42789715689632
  H          -1.67829178871854     -0.41626525493330      3.80128540738378
  C           0.52562021098789      3.17958303649502      1.84271572891792
  N           1.50934383258763      3.30689781851223      2.81803520822083
  H           1.44276909859355      2.74718148602014      3.65655792971598
  H           1.93079607782340      4.21680968173786      2.94628658291800
  H           0.33061488561467      4.08809994620206      1.29075994021135
  H           1.03294350628874      2.40473727565524      0.01945986652746
  Cu          2.12690507951064      2.36096876515870      1.03285678374277
