18
Coordinates from ORCA-job orca E -1967.125909023848
  C          -3.00544869343340      1.89915052204396      1.70483127053470
  C          -1.86610543059048      2.64501976942932      1.42882365820704
  C          -0.63484972460826      2.27370053655867      1.97123554034686
  C          -0.55478039204031      1.13901091167390      2.78294426519329
  C          -1.69382456888760      0.39673215488117      3.05773285451545
  C          -2.92185497674907      0.77558062603806      2.51990817278168
  H          -3.95746631934968      2.19747691990357      1.28545703454189
  H          -3.80877905009723      0.19343298547463      2.73396433120668
  H          -1.93091951045510      3.52230895094029      0.79699708801624
  H           0.39906254804038      0.82176129687901      3.18786846839405
  H          -1.62434455564943     -0.48184541794592      3.68579406401306
  C           0.55129742615592      3.10800679811419      1.68146401180002
  N           1.49032414709921      3.33425921630524      2.74869938871106
  H           1.23856690283822      2.89373248689166      3.62407041694912
  H           1.72286786644074      4.30983249912871      2.88223202733681
  H           0.33539517087356      4.00772440630035      1.12077997937132
  H           1.16017848411367      2.34129833932423      0.40967512984143
  Cu          2.52314067629919      2.25727699805805      1.29056229823828
