18
Coordinates from ORCA-job orca E -1967.140248614270
  C          -2.94516480515133      1.80173888910870      1.56860503580139
  C          -1.83590455756378      2.61904214512582      1.43667970445410
  C          -0.67461538680347      2.35887174969899      2.18005561065625
  C          -0.64155705708139      1.25949829521788      3.05157203560237
  C          -1.75473825885700      0.44818387931611      3.17945135706871
  C          -2.90606619442405      0.71548364938004      2.43885351523166
  H          -3.83908904782877      2.00821722514297      0.99563026850603
  H          -3.77194754620862      0.07448904175126      2.54164341418778
  H          -1.85529897909395      3.46222189726237      0.75782976718826
  H           0.24543536993876      1.02695283438983      3.62649625063962
  H          -1.72897092479730     -0.39657490946137      3.85460439524620
  C           0.43976306400912      3.26578463856471      2.00423386377507
  N           1.55677758970719      3.27013950215384      2.79504588159734
  H           1.63405670630922      2.62673865791988      3.57329673842103
  H           2.05717101476863      4.14327208768107      2.91417522600800
  H           0.25406246263368      4.18949997517626      1.47000861009335
  H           1.26593773675096      2.27740570538477     -0.39705065378812
  Cu          1.92260881369219      2.48349473618661      0.92190897931064
