18
Coordinates from ORCA-job orca E -1967.039638460952
  C          -2.95951645766954      2.20643696585608      2.06359271638443
  C          -1.74211327453394      2.71594453325402      1.62773849059970
  C          -0.56574589468889      1.98748893111856      1.80473669834820
  C          -0.62735851572436      0.73639598734863      2.41964972095253
  C          -1.84453135299162      0.22293095366455      2.85461755531579
  C          -3.01213978906691      0.95868659124679      2.67879436614893
  H          -3.86730880276013      2.77803189377691      1.91781797647351
  H          -3.96069525112560      0.55914758680341      3.01428288805988
  H          -1.70470552192285      3.68347422543618      1.13997870433295
  H           0.28041543653639      0.15921849259655      2.55570816619053
  H          -1.88222437681133     -0.75074440374257      3.32644222380494
  C           0.76651347047889      2.54265754070393      1.37399787473145
  N           1.36627444116210      3.42330394881867      2.43614225275758
  H           1.43433510793212      2.89039036557403      3.30171745087175
  H           0.72558516301609      4.18729041135517      2.63684427736497
  H           0.64347499518820      3.16543113278982      0.48885777352842
  H           1.25452219215156      1.99697111753358      1.23579941121155
  Cu          3.11767843083033      4.17140372586433      2.03632145292143
