18
Coordinates from ORCA-job orca E -1967.131884043300
  C          -2.95053631857320      1.82682660935133      1.59617587491208
  C          -1.82265998114578      2.61050579183406      1.41065286963185
  C          -0.64077784433357      2.31888775252420      2.10140645297584
  C          -0.59942150476606      1.21878907063613      2.96632087158566
  C          -1.72906848651806      0.43687311872982      3.14609401688074
  C          -2.90584644369020      0.73911539386288      2.46374241167699
  H          -3.86361720996370      2.06299260836294      1.06606670631859
  H          -3.78534666547028      0.12506648013211      2.60735181957391
  H          -1.85046070214808      3.45498816690813      0.73341042122302
  H           0.31002635910319      0.95561437948603      3.49204165465151
  H          -1.69329382523927     -0.41182214999707      3.81611489421109
  C           0.49898686489955      3.20961301517093      1.89932592533076
  N           1.52378596572435      3.30046707359805      2.82157432745025
  H           1.50639192172156      2.71805545863076      3.64792427980353
  H           1.98179605633727      4.19488894909566      2.93978504277161
  H           0.31322313241579      4.11690280958003      1.34060440256442
  H           1.09024749554185      2.36002315306437     -0.13778792365610
  Cu          2.03903118610485      2.39667231902920      1.00223595209371
