18
Coordinates from ORCA-job orca E -1967.084616641210
  C          -2.96126027850309      2.20690837606501      2.06357915084615
  C          -1.74408900007063      2.71696132445531      1.62765361359712
  C          -0.56730300547600      1.98915712076742      1.80470942146848
  C          -0.62838187064745      0.73816528293109      2.42000697260092
  C          -1.84526507387192      0.22424803360164      2.85521499910720
  C          -3.01326777913903      0.95932459859948      2.67912175262872
  H          -3.86934085393387      2.77799472937850      1.91760513861768
  H          -3.96163455772703      0.55934490526095      3.01462280611207
  H          -1.70717685508750      3.68443567294499      1.13972845414560
  H           0.27963665221379      0.16140680312753      2.55603871588844
  H          -1.88247892320780     -0.74935966484488      3.32722640142015
  C           0.76462783664322      2.54587364463940      1.37382362034384
  N           1.36531954065768      3.42428017157454      2.43776489303651
  H           1.43741900104338      2.88839604260620      3.30115527141068
  H           0.72295991295250      4.18571283297982      2.64325211952577
  H           0.64043532159741      3.17100917124010      0.49014012288040
  H           1.27886285625466      1.97155628230548      1.22567870489081
  Cu          3.11339707630219      4.17904467236609      2.03571784147801
