18
Coordinates from ORCA-job orca E -1967.143318810032
  C          -2.97238379137274      1.81149584797220      1.59021936350639
  C          -1.87822872270010      2.65096140535698      1.48318232487431
  C          -0.71171147979950      2.38882071917556      2.22315854998482
  C          -0.66182732517204      1.26665517560186      3.06969348900106
  C          -1.76041593707377      0.43623998840141      3.17218864675431
  C          -2.91441313595126      0.70456859934476      2.43276661454737
  H          -3.86880106635233      2.01601162130790      1.02080097547530
  H          -3.76918785775862      0.04615023803121      2.51680141623354
  H          -1.91004272646647      3.51255755202647      0.82861175678868
  H           0.22644999310409      1.03815608506677      3.64380599947953
  H          -1.72494736048198     -0.42483755212589      3.82569757218216
  C           0.37807390831760      3.31057548832406      2.06503048073827
  N           1.54107332910046      3.27994496083965      2.76347215614943
  H           1.67401972633588      2.61300814846243      3.51578116396577
  H           2.06733059811423      4.14195475704820      2.86085841001607
  H           0.19428167598505      4.22879536487869      1.51980122957293
  H           1.60929089382357      2.10848494932400     -0.51955999536189
  Cu          1.90389927834795      2.50491665096363      0.90072984609181
