18
Coordinates from ORCA-job orca E -1967.122446631980
  C          -2.96780212298419      1.85608574831013      1.63558589573051
  C          -1.82999300473395      2.61583650430857      1.40288384148447
  C          -0.62563480435063      2.28897680945329      2.03037619461980
  C          -0.57020309489857      1.18191191674075      2.88111462417870
  C          -1.70928556918295      0.42415616352723      3.11096875917229
  C          -2.91003000363822      0.75966297919111      2.49037988496290
  H          -3.89894519582348      2.12055280046659      1.15184528562731
  H          -3.79655666746852      0.16580347060237      2.67107168698291
  H          -1.87223462439887      3.46903991754536      0.73703629192018
  H           0.35994486289709      0.89302784656259      3.35555536304031
  H          -1.66010495035375     -0.43181708497604      3.77113346132229
  C           0.54350669132683      3.15238837424689      1.78492455729120
  N           1.50327376502001      3.31474983544781      2.79935899542384
  H           1.37923156026917      2.78890797419595      3.65298213086998
  H           1.86591705738893      4.24802288636847      2.93625757134276
  H           0.33565787106870      4.06213723065776      1.23982452463700
  H           1.03598895241645      2.40340385949873      0.17231537822417
  Cu          2.23972927744623      2.32161276785175      1.08942555316858
