18
Coordinates from ORCA-job orca E -1967.122267400489
  C          -2.96962143269809      1.85837921615299      1.63893599518367
  C          -1.83171435804091      2.61753669347381      1.40412127421784
  C          -0.62579086302165      2.28829231318314      2.02721332103133
  C          -0.56905415875977      1.17983512829470      2.87606323232376
  C          -1.70812536392761      0.42275212347425      3.10806022365343
  C          -2.91039779844270      0.76044998941513      2.49158270614124
  H          -3.90195030407557      2.12457810247443      1.15842783693299
  H          -3.79692429305020      0.16704917136959      2.67379035407433
  H          -1.87527198082908      3.47202030096075      0.74000416429281
  H           0.36247235814694      0.88929413303330      3.34680713435155
  H          -1.65775724676126     -0.43450582399926      3.76648204226870
  C           0.54443358316767      3.14990620520349      1.77899863065261
  N           1.50316338502287      3.31570870260878      2.79626480605238
  H           1.37142015333018      2.79528230481738      3.65212938583742
  H           1.85811705641917      4.25190752354184      2.93360356782137
  H           0.33605853486795      4.05890383232685      1.23284063615549
  H           1.03885250660551      2.40168282286515      0.18955323851171
  Cu          2.25455022204683      2.31538726080296      1.09816145049654
