18
Coordinates from ORCA-job orca E -1967.118826441149
  C          -2.96365818948437      2.20691244362681      2.05985025918163
  C          -1.74633761217216      2.71687445503281      1.62402474176276
  C          -0.56876320636975      1.99084940431830      1.80458862026455
  C          -0.62960257111974      0.74169519224744      2.42357224192901
  C          -1.84641564922932      0.22803761186756      2.85891918670194
  C          -3.01510220318055      0.96126629608010      2.67915586442049
  H          -3.87210014579020      2.77664844588952      1.91084794945608
  H          -3.96342208189097      0.56118492345042      3.01465845669237
  H          -1.70979647281218      3.68296906144579      1.13339332416954
  H           0.27887378008490      0.16617685440112      2.56175918985144
  H          -1.88315889614205     -0.74424174739083      3.33369286196499
  C           0.76141047659362      2.55125796410149      1.37301613486808
  N           1.36711871891086      3.41970383888364      2.44176196518911
  H           1.45477761593054      2.87266402751794      3.29662964238318
  H           0.71950471947319      4.17163693251256      2.66576002961897
  H           0.63545639467716      3.18272210275221      0.49377619338904
  H           1.30108056909070      1.94955203039702      1.20769475033022
  Cu          3.10259475343082      4.19855016286477      2.02993858782517
