18
Coordinates from ORCA-job orca E -1967.143379117791
  C          -2.97469573514863      1.81273443288275      1.59243773037105
  C          -1.88140548160413      2.65337569490351      1.48637689214504
  C          -0.71402808963182      2.39059180478377      2.22505620815200
  C          -0.66255804636232      1.26665512451778      3.06944765968797
  C          -1.76024534014302      0.43515512112784      3.17084971515207
  C          -2.91498062659501      0.70408799478408      2.43259767207177
  H          -3.87173852436241      2.01759301510628      1.02415355508164
  H          -3.76903006482623      0.04460618917199      2.51570419394034
  H          -1.91443161615231      3.51641927201861      0.83378951142635
  H           0.22629416174346      1.03795518256194      3.64257468093440
  H          -1.72370766863101     -0.42728303544717      3.82248762546692
  C           0.37449080581415      3.31298398305444      2.06750389090870
  N           1.53940694725136      3.28118250032928      2.76152508851716
  H           1.67475069788255      2.61383438431300      3.51315197345520
  H           2.06708234239967      4.14262546664064      2.85692098022501
  H           0.19090293956794      4.23033724169556      1.52071707771482
  H           1.63149375314571      2.09755034770645     -0.52253269746465
  Cu          1.90485954565206      2.50405527984918      0.90027824221408
