18
Coordinates from ORCA-job orca E -1967.138165324581
  C          -2.94162305376606      1.80394888231675      1.56851539165849
  C          -1.82735491408109      2.61309382305285      1.42518139673625
  C          -0.66350380065426      2.34868508577159      2.16120929424362
  C          -0.63173847237281      1.25301707078175      3.03577745482835
  C          -1.74944692770601      0.44850867094405      3.17473962870246
  C          -2.90424029357729      0.72044543293781      2.44223915089294
  H          -3.83815454657219      2.01487606903476      1.00113768669951
  H          -3.77367854055435      0.08567510615786      2.55331703473234
  H          -1.84623372400073      3.45345129816677      0.74274332290134
  H           0.25855977187524      1.01568122481966      3.60376758458704
  H          -1.72339841559630     -0.39441386907480      3.85225418197643
  C           0.45880568147760      3.25032501941223      1.97779827167295
  N           1.55607131920754      3.27303040243524      2.80301229599240
  H           1.61195495371449      2.64240980473476      3.59285280660628
  H           2.04610666689957      4.15111062012197      2.92489168315866
  H           0.27299496087213      4.17217500172191      1.44109417157243
  H           1.17623531417771      2.31718839683586     -0.32367425703857
  Cu          1.94110402065692      2.46525195982866      0.93618290007669
