18
Coordinates from ORCA-job orca E -1967.191655493117
  C          -2.97800847254387      2.20365899048034      2.05006945614649
  C          -1.76324035617926      2.72032586227070      1.61412388910569
  C          -0.57985680595940      2.00565393720165      1.80421717850515
  C          -0.63277319195035      0.76148165633949      2.43410712451527
  C          -1.84625932149144      0.24216924546694      2.87071369617471
  C          -3.02090903372447      0.96366872350934      2.68045472805657
  H          -3.89057162780226      2.76450646986138      1.89278862688643
  H          -3.96686537855143      0.55819613021244      3.01612520555345
  H          -1.73304927064481      3.68295677829607      1.11645695072611
  H           0.28012766642325      0.19442855338565      2.57694487398889
  H          -1.87639855751091     -0.72646075773014      3.35333291173072
  C           0.74016326491605      2.58431081793843      1.37344421746624
  N           1.36834929287354      3.41193988882687      2.45560937353958
  H           1.48278360797407      2.83433375672939      3.28660592011247
  H           0.72004115771536      4.14951252406853      2.72496335448068
  H           0.61367690206342      3.23247758531515      0.50760486534113
  H           1.41858955928840      1.82880997641608      1.12650041490978
  Cu          3.08666056510457      4.22248986141042      2.02897721275926
