18
Coordinates from ORCA-job orca E -1967.123316586016
  C          -2.96338912814523      1.85069992029449      1.62775145960943
  C          -1.82615163652888      2.61256696325465      1.40106145443142
  C          -0.62566046527731      2.29146563119218      2.03953883097691
  C          -0.57329294117097      1.18697399014203      2.89422251906648
  C          -1.71192243330772      0.42684682726413      3.11750994500528
  C          -2.90883913050014      0.75726687406631      2.48675923853860
  H          -3.89162452670275      2.11090604857869      1.13623330732879
  H          -3.79515031177152      0.16175795910086      2.66297972055130
  H          -1.86527786203877      3.46316075522823      0.73173526108685
  H           0.35356459753984      0.90229475811065      3.37747101346324
  H          -1.66567665131663     -0.42672610452850      3.78093919511200
  C           0.53886971306801      3.16045583781546      1.80289654661765
  N           1.50325294456976      3.31332378632943      2.80701300482086
  H           1.39841021286102      2.77609099950782      3.65607747597906
  H           1.88696252192523      4.23865696027491      2.94073541163922
  H           0.33537800843006      4.06928518515967      1.25476260303705
  H           1.03165054854339      2.40522431906037      0.12485680984635
  Cu          2.20135653982288      2.33420928914794      1.07049620288876
