18
Coordinates from ORCA-job orca E -1967.176702888278
  C          -3.00520652592826      2.18555460439121      2.02083779744648
  C          -1.79714553793370      2.72090781302616      1.58700089819822
  C          -0.60027496570599      2.03718197218533      1.80542237604847
  C          -0.63217773466246      0.80605791281389      2.46265809618498
  C          -1.83771238593261      0.27046265088179      2.89881605749112
  C          -3.02687419594875      0.96025687815885      2.67898196357442
  H          -3.92820734489779      2.72187369210680      1.84078166125610
  H          -3.96695747886982      0.54024770532722      3.01320635811249
  H          -1.78267037532466      3.67364968481038      1.07044214045018
  H           0.29155240762472      0.26186465817024      2.62281350852452
  H          -1.85142457467184     -0.68791979889399      3.40214612968190
  C           0.70058501745231      2.64649452325641      1.37824397173159
  N           1.38569725794372      3.38237412179388      2.47928867805502
  H           1.52360648008862      2.75018658818852      3.26548350335822
  H           0.76100239107318      4.11109960029917      2.82330353452683
  H           0.57410401374838      3.32879555308081      0.54213481033909
  H           1.51335342061477      1.73139733841751      0.98679836595741
  Cu          3.10121013133061      4.19397450198465      2.03468014906163
