18
Coordinates from ORCA-job orca E -1967.131400930143
  C          -2.95062135783120      1.82713616125095      1.59686350959668
  C          -1.82211184374840      2.60942948668390      1.40906009863971
  C          -0.63966876488408      2.31723315083668      2.09823872810010
  C          -0.59815839860759      1.21774835376897      2.96354845156228
  C          -1.72841722900407      0.43699195017984      3.14564843684960
  C          -2.90593110613098      0.73996082541226      2.46512004309922
  H          -3.86425719140298      2.06406831894745      1.06802283228271
  H          -3.78588986401109      0.12701102681053      2.61056553295416
  H          -1.85009034801482      3.45352939143865      0.73132921319463
  H           0.31187166829932      0.95411340111409      3.48807645035223
  H          -1.69245598524373     -0.41122805554641      3.81627761101685
  C           0.50147163386348      3.20730993224035      1.89487483869576
  N           1.52231248492888      3.30011817110772      2.82163282481716
  H           1.50109875969418      2.71876074787803      3.64852143887937
  H           1.97847718011723      4.19524945504362      2.94092212194684
  H           0.31586615681625      4.11540734534603      1.33759693820208
  H           1.08389588582395      2.36768048398689     -0.12651805729305
  Cu          2.04506831933583      2.39393985349999      1.00325898710314
