18
Coordinates from ORCA-job orca E -1967.138836301294
  C          -2.94199669937986      1.80260424103541      1.56751136409577
  C          -1.82937266530558      2.61447830533466      1.42816075710153
  C          -0.66674057194296      2.35198535978488      2.16736986567714
  C          -0.63500647547799      1.25564326469393      3.04160652527357
  C          -1.75123718316988      0.44882453836420      3.17669576998668
  C          -2.90446426163628      0.71865694127378      2.44068717322675
  H          -3.83735749278278      2.01165567520192      0.99764213027930
  H          -3.77271687271003      0.08177267615412      2.54885009683486
  H          -1.84807409013097      3.45537294873850      0.74640532926489
  H           0.25386829984555      1.02039974147436      3.61261699654956
  H          -1.72562341764888     -0.39429124239627      3.85395396860749
  C           0.45308704267322      3.25531316312935      1.98650314634892
  N           1.55704552675563      3.27145874509751      2.80062596500575
  H           1.62016163193395      2.63645068232519      3.58658030458016
  H           2.05118539363197      4.14754807404390      2.92141657224527
  H           0.26794512157152      4.17790353385138      1.45063628724177
  H           1.19825243616370      2.30765395885502     -0.34529778282473
  Cu          1.93350427760979      2.47102939303782      0.93107553050496
