18
Coordinates from ORCA-job orca E -1967.122157236153
  C          -2.97201426374215      1.86166728603141      1.64374239960653
  C          -1.83385476202304      2.61983319118952      1.40604024868451
  C          -0.62591584592109      2.28717212720572      2.02310569570428
  C          -0.56745302400834      1.17667353832411      2.86909949482427
  C          -1.70663175925014      0.42065391249949      3.10404620833677
  C          -2.91096879496572      0.76158200688459      2.49336255121738
  H          -3.90592518948948      2.13045243829497      1.16773819658373
  H          -3.79757979450702      0.16894402377737      2.67765495706108
  H          -1.87908327404565      3.47616799740519      0.74442453903256
  H           0.36584690964688      0.88360056572708      3.33480215491083
  H          -1.65466255697366     -0.43844462236268      3.75995899122573
  C           0.54596133146817      3.14650665976753      1.77152604551768
  N           1.50159052601280      3.31823664578513      2.79358152315444
  H           1.36084310986379      2.80432523613892      3.65198842404719
  H           1.84823254828357      4.25766564598544      2.93008435378450
  H           0.33652493553522      4.05439651615162      1.22382309685143
  H           1.04595689932579      2.39641838942869      0.20774953352676
  Cu          2.27159300479038      2.30860844176514      1.11031158592950
