18
Coordinates from ORCA-job orca E -1967.188212161557
  C          -2.99355570859623      2.19398137261719      2.03404057024115
  C          -1.78255168283670      2.72109320499726      1.59909680926607
  C          -0.59150427532699      2.02350627928524      1.80444706227607
  C          -0.63255363474318      0.78642099039618      2.44951043661005
  C          -1.84150177994222      0.25804750445783      2.88634299369774
  C          -3.02441358003864      0.96200853415813      2.67986661138714
  H          -3.91208943325706      2.74120737312946      1.86416525168597
  H          -3.96707149288843      0.54839394689107      3.01484874835609
  H          -1.76127133657656      3.67832495312613      1.09091672756361
  H           0.28646340943546      0.23195031074552      2.60170523039223
  H          -1.86228273366659     -0.70497297142823      3.38052280451055
  C           0.71823471115987      2.61879462055954      1.37477177855885
  N           1.37777067274838      3.39584633768242      2.46901144359257
  H           1.50652069849996      2.78718799902423      3.27519256823207
  H           0.74166371020359      4.12841167599596      2.78072165784357
  H           0.59056106081606      3.28726923668457      0.52637708142299
  H           1.47635788395456      1.76833541393418      1.04889849893561
  Cu          3.09368351105516      4.20865321774210      2.03260372542632
