18
Coordinates from ORCA-job orca E -1967.134634463648
  C          -2.94826742027137      1.81983495395776      1.58737806931996
  C          -1.82507774022164      2.61287037277530      1.41768239687333
  C          -0.64913493072124      2.33038932742918      2.12410720089734
  C          -0.61063712810866      1.23032246410501      2.99056385459170
  C          -1.73596450520870      0.43973001743813      3.15455083055493
  C          -2.90559940726101      0.73212943575542      2.45523280111572
  H          -3.85595263400615      2.04778717268695      1.04467165639485
  H          -3.78144227439306      0.11010193318915      2.58628155375275
  H          -1.85009335742519      3.45688260296946      0.73984033255998
  H           0.29254666042337      0.97475037069995      3.53019164649536
  H          -1.70297156085388     -0.40837605759228      3.82538856968478
  C           0.48379187100286      3.22563302099167      1.92885096053359
  N           1.53470892744116      3.29412724724895      2.81713162092220
  H           1.54551514416823      2.69650626249053      3.63319313341605
  H           2.00577769889735      4.18249333729229      2.93342093548006
  H           0.29956284981123      4.13601523089187      1.37373501090824
  H           1.12449230367478      2.33379615715165     -0.21081136379583
  Cu          2.00120550305208      2.41946615051860      0.98163079029453
