18
Coordinates from ORCA-job orca E -1967.126986855807
  C          -3.01044397443991      1.90213312781645      1.71081011714176
  C          -1.87131735282935      2.64673552757040      1.43021261311951
  C          -0.63769625991628      2.27252663909806      1.96524035350206
  C          -0.55540145679581      1.13629055064443      2.77466452486664
  C          -1.69421499489887      0.39545791052153      3.05440677808906
  C          -2.92444881035107      0.77714523499000      2.52364318215625
  H          -3.96417044113235      2.20269561763275      1.29692517294365
  H          -3.81122675014809      0.19617414256175      2.74150132536096
  H          -1.93816463577868      3.52542760726465      0.80054145958645
  H           0.40018453500665      0.81712032934193      3.17396305422355
  H          -1.62293466113241     -0.48419033496886      3.68078528795975
  C           0.54945366694443      3.10376760748253      1.67025092981172
  N           1.49236999225769      3.33161993604522      2.74017457080060
  H           1.23157171719868      2.89461876208016      3.61502299423339
  H           1.70836812518390      4.31070109535114      2.87794224555526
  H           0.33179968464224      4.00508038851599      1.11246653694306
  H           1.17427906725673      2.33942614493163      0.43025081710911
  Cu          2.56445254893285      2.26172971311933      1.31423803659617
