18
Coordinates from ORCA-job orca E -1967.122658671372
  C          -2.96616571732811      1.85410495629781      1.63268051117012
  C          -1.82853770124452      2.61457366319462      1.40207779061720
  C          -0.62556692562833      2.28980116576848      2.03353373255877
  C          -0.57126146031407      1.18374783554370      2.88578783544221
  C          -1.71021557751769      0.42519663656980      3.11337430310795
  C          -2.90958204730384      0.75883383968840      2.48909581001988
  H          -3.89626112329128      2.11701528325162      1.14610739478559
  H          -3.79605090596043      0.16442369696256      2.66823643963738
  H          -1.86965013133692      3.46677848726529      0.73489119490439
  H           0.35769989762438      0.89639740962649      3.36343991583816
  H          -1.66210370902771     -0.42983757339277      3.77481746911553
  C           0.54202710184499      3.15515261241134      1.79114118901166
  N           1.50330740655011      3.31412537098779      2.80207763033716
  H           1.38612659316605      2.78409371596284      3.65405721640744
  H           1.87343135854841      4.24460472249201      2.93803385084230
  H           0.33560746402721      4.06470751333359      1.24523824314620
  H           1.03362402273254      2.40466813274277      0.15610894022096
  Cu          2.22603145445949      2.32607253129296      1.08234053283631
