18
Coordinates from ORCA-job orca E -1967.181023228652
  C          -2.97146976636731      2.20636373724871      2.05543357014692
  C          -1.75523455331675      2.71929915634845      1.61957822691028
  C          -0.57482877374437      1.99849096606570      1.80458144165134
  C          -0.63224895452609      0.75176214162931      2.42883170653698
  C          -1.84753410113780      0.23566884589564      2.86482473013866
  C          -3.01901617007266      0.96345922885749      2.68006555279947
  H          -3.88177737462356      2.77205454190720      1.90245687638944
  H          -3.96626257266669      0.56092281965563      3.01564282247008
  H          -1.72161994607377      3.68380245895373      1.12569241930446
  H           0.27829804464603      0.18015152391169      2.56890737235843
  H          -1.88125593718538     -0.73492031437758      3.34326041980017
  C           0.74974490249913      2.56949291318615      1.37340215053644
  N           1.36642967734562      3.41689200061920      2.44971957658030
  H           1.47269347008035      2.85250900803280      3.29093326662395
  H           0.71550735263879      4.15810267690475      2.70074760151973
  H           0.62366547852065      3.20962154013823      0.50081977317067
  H           1.37910229394609      1.86954438464573      1.16078434317424
  Cu          3.08826693003820      4.22124237037590      2.02735814988705
