18
Coordinates from ORCA-job orca E -1967.179378085108
  C          -3.00276312048312      2.18745561601091      2.02378640890595
  C          -1.79410212341876      2.72104093691529      1.58959405308286
  C          -0.59848172432041      2.03433961082030      1.80510097659944
  C          -0.63228288803779      0.80188245583002      2.45969948411544
  C          -1.83850666657362      0.26780039948002      2.89608349451086
  C          -3.02635689235153      0.96068458030684      2.67924741537734
  H          -3.92483038392573      2.72613761511189      1.84600285540632
  H          -3.96697695543952      0.54202671492950      3.01366674324564
  H          -1.77820727226421      3.67477066079298      1.07485387700226
  H           0.29043827705471      0.25543599629767      2.61805678516499
  H          -1.85368882856785     -0.69162248296079      3.39738978971325
  C           0.70440534661629      2.64051509907639      1.37728734027715
  N           1.38388554558667      3.38535766117664      2.47712619560961
  H           1.51995415639838      2.75821422282764      3.26768638978229
  H           0.75658398676467      4.11495213927808      2.81414110436888
  H           0.57743126512315      3.32009844253026      0.53875739606260
  H           1.50651154992890      1.73794048485915      1.00018031943635
  Cu          3.09944672791020      4.19742984671603      2.03437937133744
