18
Coordinates from ORCA-job orca E -1967.184194897394
  C          -2.99831083019347      2.19061198232252      2.02873368648332
  C          -1.78849446318734      2.72109088739276      1.59424861001091
  C          -0.59507471028244      2.02908220649600      1.80478359125632
  C          -0.63240027111769      0.79435134977690      2.45473177113262
  C          -1.83994838947653      0.26304024324969      2.89135565813364
  C          -3.02542269562300      0.96129180050539      2.67950998245358
  H          -3.91868486582131      2.73342057028173      1.85473316993139
  H          -3.96703846831717      0.54505730962795      3.01416301172965
  H          -1.76999868680350      3.67653093298951      1.08268769247108
  H           0.28853072890880      0.24398971492714      2.61010013695480
  H          -1.85782992786837     -0.69813463362655      3.38921686071676
  C           0.71123262741536      2.62982754972927      1.37588837603108
  N           1.38103469360831      3.39044018823746      2.47314686602659
  H           1.51364657983485      2.77225685149721      3.27136384599135
  H           0.74943933589590      4.12156773078785      2.79791579853788
  H           0.58378579413034      3.30413191003673      0.53263623063401
  H           1.49123168217589      1.75308216915812      1.02440010173947
  Cu          3.09676186672181      4.20282123660915      2.03342460976422
