18
Coordinates from ORCA-job orca E -1967.060275132297
  C      -2.781600      1.622250      1.415630
  C      -1.618540      2.388350      1.293080
  C      -0.565840      2.241090      2.211060
  C      -0.700740      1.305210      3.258090
  C      -1.866820      0.541780      3.376250
  C      -2.905890      0.699930      2.456650
  H      -3.586780      1.743900      0.702600
  H      -3.806810      0.107370      2.550290
  H      -1.539150      3.098870      0.479430
  H       0.085210      1.155620      3.985720
  H      -1.964310     -0.174370      4.182090
  C       0.666250      3.095850      2.021630
  N       1.695080      2.846550      3.026190
  H       1.356820      3.192240      3.953900
  H       2.537750      3.408140      2.768610
  H       0.379300      4.170820      2.046800
  H       0.589600      3.504910     -0.984430
  Cu      1.448930      2.685950      0.169450
18
Coordinates from ORCA-job orca E -1967.075506030574
  C      -2.781273      1.641390      1.419066
  C      -1.630414      2.404391      1.295314
  C      -0.570599      2.250176      2.207155
  C      -0.686529      1.303105      3.240049
  C      -1.843608      0.547580      3.362994
  C      -2.890307      0.711562      2.453366
  H      -3.591007      1.765567      0.712642
  H      -3.787266      0.113494      2.549038
  H      -1.552071      3.120648      0.487914
  H       0.111431      1.154229      3.953356
  H      -1.931689     -0.173314      4.164684
  C       0.628103      3.099284      2.046078
  N       1.671334      2.858707      3.001192
  H       1.364124      3.157615      3.928222
  H       2.478460      3.428128      2.752993
  H       0.355779      4.161692      1.988449
  H       0.621332      3.459330     -0.887403
  Cu      1.456659      2.630876      0.237929
18
Coordinates from ORCA-job orca E -1967.087032894865
  C      -2.785366      1.650720      1.417797
  C      -1.646649      2.416969      1.295312
  C      -0.580173      2.262775      2.204358
  C      -0.684433      1.306860      3.229244
  C      -1.832664      0.550905      3.352398
  C      -2.882590      0.714890      2.448006
  H      -3.597985      1.772739      0.714559
  H      -3.774849      0.109697      2.543781
  H      -1.566952      3.138847      0.493391
  H       0.123277      1.164433      3.932233
  H      -1.914003     -0.174180      4.150965
  C       0.591045      3.106477      2.067060
  N       1.657128      2.874405      2.959081
  H       1.404617      3.117680      3.911057
  H       2.448800      3.450126      2.705903
  H       0.333724      4.157228      1.932032
  H       0.652017      3.422358     -0.754925
  Cu      1.477518      2.591529      0.310789
18
Coordinates from ORCA-job orca E -1967.095802138282
  C      -2.801903      1.655082      1.423257
  C      -1.670298      2.427486      1.298596
  C      -0.594565      2.272884      2.198995
  C      -0.687913      1.306328      3.216457
  C      -1.831788      0.546009      3.343524
  C      -2.887260      0.711210      2.448017
  H      -3.619644      1.776157      0.725754
  H      -3.775248      0.099922      2.545099
  H      -1.592191      3.155598      0.502048
  H       0.130230      1.167490      3.908182
  H      -1.905148     -0.184521      4.138068
  C       0.564300      3.123235      2.073665
  N       1.652799      2.899267      2.917558
  H       1.453219      3.072127      3.896811
  H       2.432048      3.492663      2.666559
  H       0.318809      4.163216      1.870480
  H       0.715093      3.387079     -0.637484
  Cu      1.521920      2.563229      0.377453
18
Coordinates from ORCA-job orca E -1967.102844035044
  C      -2.820817      1.659661      1.432684
  C      -1.693623      2.440774      1.305469
  C      -0.610341      2.283921      2.194257
  C      -0.690659      1.307059      3.203092
  C      -1.831191      0.538481      3.334501
  C      -2.893825      0.705894      2.449703
  H      -3.644593      1.781186      0.742253
  H      -3.777517      0.088649      2.547743
  H      -1.620368      3.176274      0.514698
  H       0.137331      1.168429      3.883745
  H      -1.894596     -0.199231      4.123368
  C       0.542716      3.147448      2.070902
  N       1.649870      2.926396      2.881757
  H       1.493006      3.011809      3.881788
  H       2.415502      3.547494      2.647572
  H       0.306614      4.176299      1.813824
  H       0.784828      3.337558     -0.552473
  Cu      1.570122      2.536357      0.438158
18
Coordinates from ORCA-job orca E -1967.108943809623
  C      -2.837676      1.667698      1.444528
  C      -1.714128      2.458047      1.316667
  C      -0.624729      2.295549      2.192822
  C      -0.690683      1.308047      3.190848
  C      -1.827296      0.529835      3.323989
  C      -2.897886      0.701723      2.450513
  H      -3.667738      1.792210      0.762085
  H      -3.777469      0.078668      2.548086
  H      -1.648721      3.202758      0.533408
  H       0.145234      1.165101      3.861300
  H      -1.879749     -0.217343      4.104726
  C       0.522932      3.173239      2.065545
  N       1.644102      2.956166      2.850996
  H       1.520854      2.945577      3.860365
  H       2.390816      3.611142      2.641859
  H       0.294131      4.191385      1.767557
  H       0.854461      3.269196     -0.501980
  Cu      1.616004      2.505463      0.499724
18
Coordinates from ORCA-job orca E -1967.114733120448
  C      -2.853337      1.678400      1.457762
  C      -1.732965      2.477578      1.331461
  C      -0.637866      2.306776      2.194894
  C      -0.689562      1.307287      3.179980
  C      -1.822092      0.519551      3.311742
  C      -2.900873      0.698296      2.449798
  H      -3.689679      1.808410      0.783971
  H      -3.776732      0.069756      2.545424
  H      -1.677575      3.233096      0.557617
  H       0.152160      1.155587      3.841490
  H      -1.863719     -0.238982      4.082087
  C       0.503527      3.199142      2.060857
  N       1.638018      2.990786      2.823770
  H       1.546480      2.883058      3.831295
  H       2.362107      3.680738      2.642649
  H       0.278962      4.207145      1.730409
  H       0.925744      3.184477     -0.478591
  Cu      1.659859      2.473359      0.566424
18
Coordinates from ORCA-job orca E -1967.120384263446
  C      -2.866775      1.689945      1.470661
  C      -1.749449      2.497378      1.348086
  C      -0.649090      2.316937      2.199841
  C      -0.687586      1.305044      3.171147
  C      -1.816520      0.509463      3.299483
  C      -2.902895      0.695996      2.448096
  H      -3.708544      1.826371      0.804898
  H      -3.775700      0.062835      2.541132
  H      -1.705018      3.263679      0.584223
  H       0.157225      1.141987      3.826327
  H      -1.848859     -0.260081      4.059213
  C       0.483909      3.223862      2.058576
  N       1.632790      3.027397      2.799663
  H       1.572822      2.820749      3.794035
  H       2.330897      3.752512      2.651810
  H       0.259621      4.223194      1.704530
  H       0.997187      3.089049     -0.482527
  Cu      1.698444      2.448141      0.633845
18
Coordinates from ORCA-job orca E -1967.125910573856
  C      -2.878530      1.703017      1.483677
  C      -1.765122      2.518023      1.366082
  C      -0.658724      2.327328      2.206751
  C      -0.684351      1.302494      3.163723
  C      -1.808998      0.500145      3.286744
  C      -2.902939      0.695029      2.445817
  H      -3.725553      1.846602      0.826208
  H      -3.772778      0.057451      2.536300
  H      -1.732682      3.295549      0.613283
  H       0.162071      1.126995      3.814032
  H      -1.832572     -0.280491      4.035284
  C       0.463289      3.245597      2.059670
  N       1.625268      3.064381      2.779281
  H       1.595462      2.760151      3.748717
  H       2.295632      3.821701      2.670093
  H       0.236902      4.238047      1.689259
  H       1.074800      2.979284     -0.511651
  Cu      1.731283      2.433157      0.699771
18
Coordinates from ORCA-job orca E -1967.130942297334
  C      -2.891649      1.718845      1.498978
  C      -1.783969      2.541321      1.386014
  C      -0.668647      2.340337      2.213822
  C      -0.679814      1.300448      3.154639
  C      -1.797989      0.490575      3.271177
  C      -2.901084      0.694599      2.443349
  H      -3.745580      1.870768      0.852589
  H      -3.766981      0.051436      2.531845
  H      -1.765366      3.332279      0.647145
  H       0.169675      1.112951      3.797946
  H      -1.810757     -0.303121      4.006005
  C       0.441206      3.264510      2.063373
  N       1.612754      3.102172      2.763667
  H       1.610462      2.707313      3.698743
  H       2.256743      3.885295      2.695428
  H       0.213397      4.250944      1.678911
  H       1.170699      2.846347     -0.554869
  Cu      1.759361      2.427441      0.764280
18
Coordinates from ORCA-job orca E -1967.135110901079
  C      -2.903877      1.734940      1.513356
  C      -1.803002      2.564925      1.404922
  C      -0.677179      2.355189      2.218881
  C      -0.674261      1.299127      3.142698
  C      -1.785490      0.482093      3.253744
  C      -2.897758      0.694557      2.439801
  H      -3.765180      1.894513      0.878862
  H      -3.759366      0.045472      2.526829
  H      -1.796935      3.370071      0.681430
  H       0.180272      1.103682      3.776911
  H      -1.787357     -0.324279      3.974675
  C       0.422827      3.280725      2.068302
  N       1.600239      3.138954      2.756300
  H       1.623727      2.661110      3.650188
  H       2.217372      3.944313      2.734586
  H       0.195430      4.260146      1.667079
  H       1.253880      2.696143     -0.588225
  Cu      1.779119      2.432779      0.812701
18
Coordinates from ORCA-job orca E -1967.138458301088
  C      -2.916668      1.750469      1.528148
  C      -1.821050      2.586539      1.424396
  C      -0.685014      2.367733      2.223671
  C      -0.670280      1.294763      3.129632
  C      -1.775936      0.471507      3.235409
  C      -2.896863      0.693729      2.435657
  H      -3.785258      1.918637      0.906012
  H      -3.755060      0.039880      2.520693
  H      -1.825077      3.406456      0.717613
  H       0.190013      1.092962      3.753975
  H      -1.768328     -0.347469      3.941930
  C       0.408775      3.294840      2.073361
  N       1.589589      3.178440      2.753291
  H       1.643192      2.627959      3.602216
  H       2.179046      4.003547      2.775731
  H       0.183267      4.265771      1.651007
  H       1.331086      2.539900     -0.604837
  Cu      1.797026      2.448797      0.845134
18
Coordinates from ORCA-job orca E -1967.140974630123
  C      -2.930911      1.764616      1.544042
  C      -1.839391      2.606134      1.443582
  C      -0.693960      2.378442      2.227636
  C      -0.667847      1.290077      3.116290
  C      -1.768415      0.460760      3.218125
  C      -2.898041      0.692440      2.432811
  H      -3.807011      1.940981      0.934896
  H      -3.753210      0.034448      2.516295
  H      -1.852374      3.440158      0.753497
  H       0.198866      1.084638      3.730677
  H      -1.751660     -0.369970      3.910627
  C       0.395803      3.306595      2.077395
  N       1.577085      3.215459      2.751670
  H       1.665437      2.599225      3.551231
  H       2.140553      4.056249      2.815801
  H       0.175900      4.268274      1.630644
  H       1.417538      2.393824     -0.606287
  Cu      1.814099      2.472109      0.864108
18
Coordinates from ORCA-job orca E -1967.142519648001
  C      -2.946922      1.780062      1.562163
  C      -1.858436      2.626318      1.462654
  C      -0.703492      2.388104      2.229046
  C      -0.663949      1.284111      3.098444
  C      -1.759737      0.448715      3.197689
  C      -2.899661      0.691595      2.429992
  H      -3.831935      1.965533      0.968826
  H      -3.751978      0.029784      2.512299
  H      -1.881335      3.474608      0.790389
  H       0.210898      1.074675      3.699981
  H      -1.732484     -0.394862      3.874113
  C       0.383180      3.317954      2.078713
  N       1.561839      3.250517      2.752522
  H       1.685246      2.584092      3.506716
  H       2.103413      4.102636      2.849966
  H       0.172315      4.267769      1.602206
  H       1.500789      2.244081     -0.580316
  Cu      1.834709      2.498768      0.877640
18
Coordinates from ORCA-job orca E -1967.143048519711
  C      -2.969200      1.799915      1.589551
  C      -1.881224      2.646607      1.485243
  C      -0.713180      2.391939      2.226298
  C      -0.658313      1.270605      3.073232
  C      -1.751531      0.433415      3.174462
  C      -2.905763      0.693479      2.432784
  H      -3.866074      1.998766      1.018838
  H      -3.756930      0.030450      2.517289
  H      -1.916263      3.509478      0.832472
  H       0.227417      1.051392      3.655001
  H      -1.712428     -0.425093      3.831163
  C       0.371501      3.320122      2.072121
  N       1.541639      3.288922      2.759344
  H       1.690327      2.595552      3.484323
  H       2.060672      4.152501      2.875734
  H       0.172687      4.252902      1.556690
  H       1.628528      2.110655     -0.556598
  Cu      1.860595      2.512852      0.885092
18
Coordinates from ORCA-job orca E -1967.142469367845
  C      -2.974424      1.810585      1.596367
  C      -1.889513      2.663987      1.494239
  C      -0.716784      2.403129      2.222586
  C      -0.648506      1.269573      3.051054
  C      -1.737716      0.424174      3.148447
  C      -2.899167      0.691224      2.421091
  H      -3.877117      2.013598      1.036238
  H      -3.746476      0.022621      2.500445
  H      -1.932694      3.535623      0.853537
  H       0.245599      1.044661      3.617825
  H      -1.688286     -0.445967      3.789000
  C       0.363568      3.341512      2.072693
  N       1.534733      3.300824      2.750971
  H       1.701397      2.609045      3.475097
  H       2.059872      4.163627      2.859305
  H       0.169102      4.267222      1.544188
  H       1.574858      1.973479     -0.431665
  Cu      1.884014      2.545543      0.911622
18
Coordinates from ORCA-job orca E -1967.143158218950
  C      -2.975575      1.808227      1.598687
  C      -1.887892      2.656026      1.493117
  C      -0.715892      2.395319      2.225087
  C      -0.653911      1.266554      3.061572
  C      -1.745793      0.427118      3.161883
  C      -2.905369      0.693938      2.430708
  H      -3.876649      2.011617      1.036222
  H      -3.755215      0.028981      2.513542
  H      -1.928213      3.523903      0.847340
  H       0.237531      1.040681      3.631958
  H      -1.700880     -0.439147      3.807941
  C       0.367728      3.324463      2.069394
  N       1.534044      3.298697      2.760350
  H       1.684545      2.614661      3.494176
  H       2.055380      4.162969      2.865155
  H       0.173739      4.250161      1.539456
  H       1.638572      2.053181     -0.520262
  Cu      1.876310      2.517111      0.896714
18
Coordinates from ORCA-job orca E -1967.143195622824
  C      -2.977665      1.808681      1.600808
  C      -1.889798      2.656233      1.494513
  C      -0.717556      2.395166      2.226049
  C      -0.655029      1.265996      3.062118
  C      -1.746835      0.426694      3.162624
  C      -2.906933      0.694157      2.432357
  H      -3.879206      2.012516      1.039267
  H      -3.756769      0.029198      2.515367
  H      -1.930967      3.524315      0.849096
  H       0.237238      1.039099      3.630796
  H      -1.701464     -0.440313      3.807651
  C       0.366429      3.322798      2.068568
  N       1.532160      3.297783      2.759477
  H       1.681676      2.617392      3.496780
  H       2.055982      4.161112      2.858891
  H       0.174366      4.246676      1.534876
  H       1.655873      2.063175     -0.525146
  Cu      1.880958      2.513782      0.898948
18
Coordinates from ORCA-job orca E -1967.143275441655
  C      -2.986537      1.812682      1.610794
  C      -1.898295      2.659661      1.500564
  C      -0.722719      2.395011      2.225541
  C      -0.655747      1.262340      3.057142
  C      -1.747546      0.424114      3.161125
  C      -2.911604      0.695557      2.438101
  H      -3.891090      2.018755      1.054985
  H      -3.761155      0.030379      2.522648
  H      -1.943792      3.529326      0.857673
  H       0.241246      1.031375      3.616587
  H      -1.699112     -0.446366      3.801217
  C       0.361237      3.319698      2.064406
  N       1.523645      3.297088      2.760226
  H       1.667383      2.631142      3.511688
  H       2.055500      4.157321      2.843312
  H       0.176235      4.234532      1.513308
  H       1.712920      2.076275     -0.531171
  Cu      1.901892      2.505568      0.904892
18
Coordinates from ORCA-job orca E -1967.143299983126
  C      -2.990904      1.814374      1.615418
  C      -1.902541      2.661159      1.503305
  C      -0.725306      2.395257      2.225162
  C      -0.656465      1.260962      3.054911
  C      -1.748016      0.422805      3.160288
  C      -2.914021      0.696045      2.440810
  H      -3.896787      2.021243      1.062086
  H      -3.763412      0.030773      2.526298
  H      -1.949617      3.531578      0.861524
  H       0.242636      1.028523      3.610323
  H      -1.698231     -0.449042      3.798404
  C       0.357623      3.320604      2.064111
  N       1.519572      3.297281      2.758929
  H       1.663978      2.632316      3.511132
  H       2.053929      4.156483      2.839543
  H       0.175576      4.231433      1.505489
  H       1.741575      2.075588     -0.530756
  Cu      1.912871      2.507078      0.906063
18
Coordinates from ORCA-job orca E -1967.143321718795
  C      -2.993204      1.814739      1.617434
  C      -1.905094      2.661740      1.504712
  C      -0.726886      2.395820      2.225137
  C      -0.657212      1.260775      3.054223
  C      -1.748508      0.422546      3.160479
  C      -2.915419      0.696184      2.442451
  H      -3.899506      2.021409      1.064722
  H      -3.764645      0.030806      2.528712
  H      -1.952442      3.532235      0.863007
  H       0.242780      1.028148      3.608111
  H      -1.698205     -0.449486      3.798285
  C       0.354114      3.323400      2.066320
  N       1.517560      3.296363      2.757517
  H       1.662479      2.629480      3.508097
  H       2.053557      4.154635      2.839902
  H       0.173057      4.231952      1.503747
  H       1.759333      2.073008     -0.532697
  Cu      1.920699      2.510705      0.902884
18
Coordinates from ORCA-job orca E -1967.143338011373
  C      -2.992894      1.813775      1.616288
  C      -1.905565      2.661732      1.505350
  C      -0.727712      2.397081      2.227195
  C      -0.658577      1.262242      3.056835
  C      -1.749240      0.423094      3.161609
  C      -2.915391      0.695490      2.441821
  H      -3.898465      2.019420      1.062007
  H      -3.764226      0.029545      2.527456
  H      -1.952013      3.532167      0.863462
  H       0.240410      1.030766      3.612849
  H      -1.699300     -0.448431      3.800124
  C       0.351421      3.326703      2.070847
  N       1.518438      3.295090      2.754818
  H       1.665275      2.623772      3.501148
  H       2.054491      4.153038      2.841296
  H       0.169460      4.235576      1.509117
  H       1.764382      2.069594     -0.536755
  Cu      1.921969      2.513805      0.897574
18
Coordinates from ORCA-job orca E -1967.143351607580
  C      -2.990876      1.812258      1.613210
  C      -1.904943      2.662051      1.506048
  C      -0.728254      2.399217      2.231009
  C      -0.660118      1.264832      3.061389
  C      -1.749743      0.424003      3.162820
  C      -2.914012      0.694089      2.439153
  H      -3.895047      2.016370      1.056097
  H      -3.762036      0.026846      2.522610
  H      -1.950189      3.532661      0.864310
  H       0.236599      1.035402      3.621893
  H      -1.700508     -0.446904      3.802224
  C       0.349436      3.329966      2.076661
  N       1.521361      3.293718      2.751596
  H       1.670137      2.618762      3.494344
  H       2.056747      4.151675      2.841504
  H       0.165668      4.240718      1.518615
  H       1.760036      2.064801     -0.542068
  Cu      1.918201      2.513997      0.891625
18
Coordinates from ORCA-job orca E -1967.143358942127
  C      -2.989368      1.811643      1.611161
  C      -1.904688      2.663166      1.507138
  C      -0.728817      2.401230      2.234140
  C      -0.660930      1.266758      3.064365
  C      -1.749530      0.424289      3.162747
  C      -2.912441      0.692855      2.436387
  H      -3.892716      2.014857      1.052400
  H      -3.759581      0.024198      2.517469
  H      -1.949702      3.534418      0.866282
  H       0.234190      1.038750      3.627975
  H      -1.700449     -0.446720      3.802021
  C       0.348552      3.331680      2.080186
  N       1.523709      3.293426      2.749392
  H       1.673745      2.617936      3.491428
  H       2.058325      4.151742      2.839528
  H       0.163929      4.244041      1.525063
  H       1.754714      2.059139     -0.544061
  Cu      1.913519      2.511052      0.889417
18
Coordinates from ORCA-job orca E -1967.143362577828
  C      -2.989089      1.811992      1.610869
  C      -1.905197      2.664646      1.508315
  C      -0.729391      2.402622      2.235526
  C      -0.660905      1.267521      3.064821
  C      -1.748779      0.423970      3.161627
  C      -2.911399      0.692198      2.434700
  H      -3.892443      2.015046      1.052068
  H      -3.757881      0.022519      2.514249
  H      -1.950850      3.536684      0.868603
  H       0.233907      1.039998      3.629095
  H      -1.699251     -0.447673      3.800002
  C       0.348173      3.332384      2.081263
  N       1.524551      3.293937      2.748514
  H       1.674898      2.620058      3.491973
  H       2.058729      4.152647      2.836929
  H       0.163737      4.245390      1.527132
  H       1.752949      2.053403     -0.542896
  Cu      1.910702      2.507119      0.890250
18
Coordinates from ORCA-job orca E -1967.143364225755
  C      -2.989683      1.812785      1.611722
  C      -1.906123      2.665939      1.509301
  C      -0.729880      2.403334      2.235554
  C      -0.660470      1.267411      3.063702
  C      -1.747961      0.423371      3.160218
  C      -2.911031      0.692050      2.434162
  H      -3.893520      2.016116      1.053805
  H      -3.757188      0.021891      2.513168
  H      -1.952684      3.538638      0.870570
  H       0.234910      1.039706      3.626980
  H      -1.697756     -0.449034      3.797499
  C       0.347830      3.332761      2.081042
  N       1.524240      3.294793      2.748355
  H       1.674476      2.622813      3.493565
  H       2.058278      4.153779      2.834904
  H       0.163979      4.245673      1.526557
  H       1.755058      2.048425     -0.540313
  Cu      1.909985      2.504009      0.892251
18
Coordinates from ORCA-job orca E -1967.143364840910
  C      -2.990479      1.813522      1.612813
  C      -1.906961      2.666756      1.509925
  C      -0.730170      2.403556      2.234973
  C      -0.659980      1.266939      3.062199
  C      -1.747350      0.422834      3.159103
  C      -2.911088      0.692185      2.434314
  H      -3.894847      2.017220      1.055892
  H      -3.757185      0.021961      2.513446
  H      -1.954226      3.539854      0.871793
  H       0.236218      1.038800      3.623993
  H      -1.696580     -0.450153      3.795538
  C       0.347450      3.333119      2.080527
  N       1.523504      3.295573      2.748463
  H       1.673474      2.624871      3.494896
  H       2.057608      4.154661      2.833870
  H       0.164020      4.245653      1.525283
  H       1.758661      2.044873     -0.537955
  Cu      1.910393      2.502234      0.893968
18
Coordinates from ORCA-job orca E -1967.143364946945
  C      -2.990957      1.813887      1.613458
  C      -1.907360      2.667010      1.510144
  C      -0.730234      2.403506      2.234471
  C      -0.659696      1.266548      3.061268
  C      -1.747098      0.422571      3.158609
  C      -2.911274      0.692362      2.434639
  H      -3.895607      2.017813      1.057077
  H      -3.757444      0.022273      2.514110
  H      -1.954891      3.540233      0.872198
  H       0.237030      1.038069      3.622086
  H      -1.696077     -0.450664      3.794681
  C       0.347170      3.333412      2.080250
  N       1.522959      3.296015      2.748562
  H       1.672737      2.625655      3.495355
  H       2.057217      4.155056      2.833712
  H       0.163780      4.245652      1.524520
  H       1.761279      2.043288     -0.536808
  Cu      1.910925      2.501772      0.894708
