18
Properties=species:S:1:pos:R:3 energy=-1967.06034153331 pbc="F F F"
C       -2.78160000       1.62225000       1.41563000
C       -1.61854000       2.38835000       1.29308000
C       -0.56584000       2.24109000       2.21106000
C       -0.70074000       1.30521000       3.25809000
C       -1.86682000       0.54178000       3.37625000
C       -2.90589000       0.69993000       2.45665000
H       -3.58678000       1.74390000       0.70260000
H       -3.80681000       0.10737000       2.55029000
H       -1.53915000       3.09887000       0.47943000
H        0.08521000       1.15562000       3.98572000
H       -1.96431000      -0.17437000       4.18209000
C        0.66625000       3.09585000       2.02163000
N        1.69508000       2.84655000       3.02619000
H        1.35682000       3.19224000       3.95390000
H        2.53775000       3.40814000       2.76861000
H        0.37930000       4.17082000       2.04680000
H        0.58960000       3.50491000      -0.98443000
Cu       1.44893000       2.68595000       0.16945000
18
Properties=species:S:1:pos:R:3 energy=-1967.075828677552 pbc="F F F"
C       -2.78306900       1.64651300       1.42200200
C       -1.63352300       2.41177600       1.29890500
C       -0.57217800       2.25645400       2.20875600
C       -0.68318100       1.30243000       3.23592300
C       -1.83888800       0.54452200       3.35820400
C       -2.88839000       0.71191000       2.45241200
H       -3.59463100       1.77258500       0.71804300
H       -3.78432600       0.11227100       2.54761300
H       -1.55788500       3.13135000       0.49421700
H        0.11728700       1.15016100       3.94564700
H       -1.92353100      -0.18097900       4.15610100
C        0.62768400       3.10390100       2.04501200
N        1.66725900       2.85994300       3.00318100
H        1.35589200       3.15947500       3.92869400
H        2.47274800       3.43460700       2.76110300
H        0.35790400       4.16697200       1.98618300
H        0.62537900       3.43415700      -0.89218500
Cu       1.45791000       2.61641200       0.24322800
18
Properties=species:S:1:pos:R:3 energy=-1967.087760584604 pbc="F F F"
C       -2.79024900       1.66114400       1.42414600
C       -1.65465100       2.43230700       1.30321000
C       -0.58470700       2.27538000       2.20754700
C       -0.67839300       1.30564500       3.22039100
C       -1.82311700       0.54415700       3.34184400
C       -2.87894200       0.71485900       2.44555800
H       -3.60688100       1.78712300       0.72634500
H       -3.76865100       0.10581200       2.54003500
H       -1.58109200       3.16157700       0.50742600
H        0.13451300       1.15656400       3.91579700
H       -1.89670700      -0.19082600       4.13203300
C        0.58834100       3.11653500       2.06541300
N        1.64941200       2.87884600       2.96170800
H        1.39141500       3.12612200       3.91113800
H        2.43940800       3.46067100       2.71735900
H        0.33573000       4.16808400       1.92908700
H        0.66684300       3.37160900      -0.76280100
Cu       1.48018800       2.55885000       0.32680600
18
Properties=species:S:1:pos:R:3 energy=-1967.097030159968 pbc="F F F"
C       -2.80835900       1.67009300       1.43148600
C       -1.68130100       2.44940600       1.31042900
C       -0.60119200       2.29016000       2.20445900
C       -0.67972600       1.30377700       3.20375900
C       -1.81895500       0.53620700       3.32767500
C       -2.88223800       0.71128900       2.44322900
H       -3.63127900       1.79699400       0.74121700
H       -3.76683400       0.09479800       2.53775500
H       -1.61118700       3.18839100       0.52315300
H        0.14531500       1.15574400       3.88508200
H       -1.88206000      -0.20821300       4.11003700
C        0.55931500       3.13752800       2.07235100
N        1.64526600       2.90720700       2.91873300
H        1.44006700       3.08560100       3.89582400
H        2.41988200       3.51077300       2.67832400
H        0.31810500       4.17803500       1.86855800
H        0.73433500       3.31228000      -0.64467900
Cu       1.52330400       2.51438700       0.40564700
18
Properties=species:S:1:pos:R:3 energy=-1967.10788056467 pbc="F F F"
C       -2.83908400       1.68727200       1.45137100
C       -1.72134100       2.48099700       1.32720100
C       -0.62529200       2.31374300       2.19807500
C       -0.67670400       1.30334400       3.17490100
C       -1.80801000       0.52148700       3.30406700
C       -2.88716000       0.70582500       2.44345700
H       -3.67482300       1.81910800       0.77747400
H       -3.76395200       0.07849600       2.53911300
H       -1.66370800       3.23694000       0.55449800
H        0.16734700       1.15068600       3.83240500
H       -1.85049500      -0.24079500       4.07060900
C        0.52576600       3.17573200       2.06498900
N        1.63514700       2.95169500       2.86693900
H        1.48209800       3.00428300       3.86946900
H        2.38118000       3.60541100       2.66213300
H        0.30033100       4.19744700       1.77793800
H        0.84914200       3.19844500      -0.52009400
Cu       1.59201900       2.44434200       0.51849400
18
Properties=species:S:1:pos:R:3 energy=-1967.119415248484 pbc="F F F"
C       -2.87744200       1.71899700       1.48518200
C       -1.77033600       2.53027700       1.35567300
C       -0.65076800       2.34432700       2.18706500
C       -0.66282100       1.30265300       3.12961000
C       -1.78294300       0.50205500       3.26523800
C       -2.88783600       0.70407800       2.44363300
H       -3.73391200       1.86399000       0.84053300
H       -3.75571900       0.06510800       2.54279300
H       -1.73763200       3.31294300       0.60782800
H        0.20483200       1.13589700       3.75263500
H       -1.79497700      -0.28668300       4.00565600
C        0.48800600       3.22659600       2.04151100
N        1.61519100       3.01994000       2.80871400
H        1.51206300       2.87546200       3.80843700
H        2.29863100       3.76037100       2.69451600
H        0.27792400       4.21711700       1.66195800
H        0.99647700       2.99171300      -0.40385200
Cu       1.68372100       2.34961800       0.68591000
18
Properties=species:S:1:pos:R:3 energy=-1967.128319657106 pbc="F F F"
C       -2.90973100       1.75618700       1.52268700
C       -1.80674600       2.57555300       1.38666700
C       -0.66249600       2.36035000       2.17216400
C       -0.64183800       1.28881300       3.07896900
C       -1.75722100       0.48104400       3.22244100
C       -2.88860900       0.70930200       2.44415300
H       -3.78710300       1.92290300       0.91228400
H       -3.75347200       0.06747500       2.55033800
H       -1.80032600       3.38490800       0.66697100
H        0.24290300       1.09664100       3.67010000
H       -1.74515600      -0.33144500       3.93654400
C        0.46234000       3.26544500       2.01184500
N        1.60044600       3.10499000       2.77511900
H        1.53243200       2.76881100       3.72960300
H        2.19119500       3.93046800       2.78214400
H        0.25856900       4.22264300       1.55654500
H        1.11137700       2.73505200      -0.35120900
Cu       1.77589600       2.29532000       0.84567600
18
Properties=species:S:1:pos:R:3 energy=-1967.134396912103 pbc="F F F"
C       -2.93050800       1.78907100       1.55733100
C       -1.82412200       2.60643600       1.41639000
C       -0.66201600       2.36014900       2.16401800
C       -0.62514500       1.26666800       3.04340700
C       -1.74067600       0.45930500       3.18814200
C       -2.89148600       0.71572200       2.44519700
H       -3.82277700       1.98064100       0.97660600
H       -3.75747700       0.07617100       2.55556100
H       -1.83728000       3.43657000       0.72125500
H        0.26752200       1.04392500       3.61198400
H       -1.71484000      -0.37382100       3.87754300
C        0.45492000       3.27629600       1.99158600
N        1.58675800       3.18755900       2.78775600
H        1.52058100       2.74679600       3.69836600
H        2.10592800       4.05706400       2.86288600
H        0.25597300       4.21065100       1.48655800
H        1.19983000       2.51243300      -0.39135600
Cu       1.83727600       2.28282600       0.91981100
18
Properties=species:S:1:pos:R:3 energy=-1967.13817286354 pbc="F F F"
C       -2.94402800       1.80489900       1.57645700
C       -1.83691500       2.62568100       1.44063800
C       -0.66907600       2.36460100       2.17335200
C       -0.62577000       1.25893400       3.03717200
C       -1.73803300       0.44541100       3.17066200
C       -2.89633200       0.71475500       2.44163800
H       -3.84207300       2.00968600       1.00931800
H       -3.76075100       0.07231500       2.54744600
H       -1.86193900       3.46960500       0.76281000
H        0.26757800       1.01845800       3.59880700
H       -1.70485900      -0.40251000       3.84150700
C        0.44057200       3.28437400       1.99417300
N        1.57041100       3.24049500       2.78460700
H        1.53263100       2.72158000       3.65612500
H        2.07506100       4.11748100       2.87459900
H        0.24925500       4.21130500       1.46979700
H        1.28779400       2.35595900      -0.42614900
Cu       1.87893400       2.32143200       0.96008200
18
Properties=species:S:1:pos:R:3 energy=-1967.14126644208 pbc="F F F"
C       -2.96083600       1.82117400       1.59444100
C       -1.85649100       2.64891500       1.46928200
C       -0.68307300       2.37458700       2.18871600
C       -0.63146900       1.25323100       3.03223200
C       -1.73832300       0.43254200       3.15121600
C       -2.90278800       0.71279100       2.43372000
H       -3.86393800       2.03836000       1.04024200
H       -3.76339700       0.06394800       2.53114100
H       -1.89484300       3.50952900       0.81391300
H        0.26129600       0.99898500       3.58958500
H       -1.69741000      -0.43103300       3.80126100
C        0.41391900       3.29800300       2.01094900
N        1.54764800       3.29822700       2.77827000
H        1.58659600       2.67454900       3.57655100
H        2.04478000       4.17562100       2.88421100
H        0.22487100       4.21967800       1.47449100
H        1.41396700       2.12434600      -0.43904400
Cu       1.92195000       2.42100800       0.98186300
18
Properties=species:S:1:pos:R:3 energy=-1967.142056475862 pbc="F F F"
C       -2.96789600       1.82314200       1.59888400
C       -1.86457400       2.65113600       1.47653100
C       -0.69091000       2.37536900       2.19687900
C       -0.63979500       1.25202800       3.03833600
C       -1.74531700       0.43142600       3.15402900
C       -2.90924300       0.71271200       2.43522700
H       -3.87058600       2.04191300       1.04477500
H       -3.76881700       0.06207700       2.52997200
H       -1.90398200       3.51435300       0.82481300
H        0.25225100       0.99897700       3.59710900
H       -1.70480100      -0.43387400       3.80171600
C        0.40441300       3.29447600       2.02364300
N        1.53909300       3.30985600       2.78395900
H        1.61708400       2.65378100       3.55271800
H        2.03769600       4.18518400       2.89055700
H        0.21298000       4.21683400       1.48815500
H        1.49767300       2.07203700      -0.47680200
Cu       1.92719200       2.47303300       0.95254000
18
Properties=species:S:1:pos:R:3 energy=-1967.142638301308 pbc="F F F"
C       -2.97633400       1.82064400       1.59939200
C       -1.87696800       2.65257800       1.48033500
C       -0.70464100       2.38215500       2.20628400
C       -0.65173200       1.25750800       3.04701600
C       -1.75341700       0.43216300       3.15868100
C       -2.91561300       0.70995400       2.43603800
H       -3.87815100       2.03575500       1.04248300
H       -3.77276100       0.05573400       2.52814000
H       -1.91528700       3.51695800       0.82980600
H        0.24166200       1.01445800       3.60755600
H       -1.71256700      -0.43305500       3.80645700
C        0.39004500       3.29908100       2.03913400
N        1.53335400       3.30471500       2.77496000
H        1.66706100       2.61787700       3.50881300
H        2.04142100       4.17508300       2.88365100
H        0.19811000       4.22232000       1.50498900
H        1.57997300       2.04433700      -0.47658200
Cu       1.92830500       2.52619400       0.93588700
18
Properties=species:S:1:pos:R:3 energy=-1967.143059174465 pbc="F F F"
C       -2.97699600       1.81073200       1.59320000
C       -1.87853800       2.64232600       1.47569000
C       -0.71164900       2.37958400       2.21462100
C       -0.66486700       1.26129900       3.06577300
C       -1.76728400       0.43760500       3.17825700
C       -2.92275900       0.70856000       2.44257600
H       -3.87410600       2.01853500       1.02603700
H       -3.78082400       0.05553400       2.53471600
H       -1.90860800       3.50055000       0.81644100
H        0.22583700       1.03314600       3.63602300
H       -1.73351300      -0.41986400       3.83663200
C        0.38684000       3.29097400       2.05264400
N        1.53293900       3.28408700       2.77939700
H        1.68688000       2.60046800       3.51213900
H        2.05762300       4.14663600       2.87631300
H        0.19493200       4.21726500       1.52244300
H        1.64249900       2.11907000      -0.54004300
Cu       1.91405400       2.54795200       0.89018300
18
Properties=species:S:1:pos:R:3 energy=-1967.143193677139 pbc="F F F"
C       -2.97606300       1.80780200       1.59078200
C       -1.87879700       2.64193900       1.47664800
C       -0.71413700       2.38179400       2.21957600
C       -0.66811100       1.26447300       3.07272000
C       -1.76977400       0.43872100       3.18230200
C       -2.92273400       0.70676000       2.44168700
H       -3.87152200       2.01213900       1.01974500
H       -3.78019700       0.05258100       2.53123900
H       -1.90654500       3.49883400       0.81557100
H        0.22114800       1.03994500       3.64677200
H       -1.73737300      -0.41783700       3.84190300
C        0.38326700       3.29598500       2.05686200
N        1.53446900       3.27747800       2.77236200
H        1.69455100       2.59325800       3.50301400
H        2.06404400       4.13747800       2.86952400
H        0.19336300       4.22152300       1.52498600
H        1.64938300       2.13954600      -0.54165000
Cu       1.90748600       2.54204200       0.88899600
18
Properties=species:S:1:pos:R:3 energy=-1967.143310577176 pbc="F F F"
C       -2.97421200       1.80616900       1.58880600
C       -1.87836800       2.64369300       1.47914100
C       -0.71518500       2.38491500       2.22461300
C       -0.66868000       1.26763900       3.07795600
C       -1.76917500       0.43932000       3.18347700
C       -2.92040700       0.70485300       2.43896100
H       -3.86868700       2.00774100       1.01525300
H       -3.77680700       0.04882100       2.52512800
H       -1.90570300       3.50070600       0.81831900
H        0.21812000       1.04501000       3.65667400
H       -1.73739800      -0.41718300       3.84314500
C        0.37835000       3.30448300       2.06197100
N        1.53562700       3.27314700       2.76608400
H        1.69210700       2.59039600       3.49950500
H        2.07192100       4.12963400       2.86227600
H        0.19118300       4.22877200       1.52744300
H        1.65197300       2.14710100      -0.54389700
Cu       1.89780100       2.52924400       0.88818500
18
Properties=species:S:1:pos:R:3 energy=-1967.143399666478 pbc="F F F"
C       -2.97337600       1.80652000       1.58845100
C       -1.87943900       2.64769600       1.48394400
C       -0.71655300       2.38912600       2.23040400
C       -0.66849800       1.27019800       3.08148100
C       -1.76710300       0.43884800       3.18181800
C       -2.91767900       0.70306900       2.43533900
H       -3.86754500       2.00670900       1.01397400
H       -3.77243800       0.04438700       2.51759000
H       -1.90823400       3.50648500       0.82563400
H        0.21612700       1.04697200       3.66328500
H       -1.73469000      -0.41923300       3.83938300
C        0.37211500       3.31375700       2.06940300
N        1.53584300       3.27315300       2.76077200
H        1.68755200       2.59104200       3.49599200
H        2.07752500       4.12661400       2.85485600
H        0.18753700       4.23623500       1.53126900
H        1.66260300       2.13466200      -0.54707500
Cu       1.88871300       2.51822000       0.88652000
18
Properties=species:S:1:pos:R:3 energy=-1967.143494626858 pbc="F F F"
C       -2.97448100       1.80941300       1.59036900
C       -1.88355700       2.65500400       1.49191300
C       -0.71924700       2.39539900       2.23696300
C       -0.66763100       1.27209200       3.08207600
C       -1.76324000       0.43677900       3.17619600
C       -2.91462700       0.70114600       2.43051800
H       -3.86933900       2.00973600       1.01710300
H       -3.76688100       0.03868400       2.50831800
H       -1.91609800       3.51787400       0.83925300
H        0.21587500       1.04631000       3.66453800
H       -1.72827400      -0.42498100       3.82877300
C        0.36353600       3.32462100       2.08023200
N        1.53516700       3.27766500       2.75557100
H        1.68277000       2.59647800       3.49271300
H        2.08045400       4.12908200       2.84556800
H        0.18120500       4.24391400       1.53628000
H        1.68563600       2.09760500      -0.54839700
Cu       1.88119200       2.50763800       0.88505400
18
Properties=species:S:1:pos:R:3 energy=-1967.143506997414 pbc="F F F"
C       -2.97779900       1.81322000       1.59415300
C       -1.88918000       2.66124000       1.49835500
C       -0.72228400       2.39979500       2.23968900
C       -0.66704500       1.27185500       3.07873400
C       -1.76041700       0.43402200       3.17002300
C       -2.91385800       0.70022500       2.42801600
H       -3.87412100       2.01522600       1.02383400
H       -3.76433300       0.03525600       2.50384300
H       -1.92528600       3.52800700       0.85105200
H        0.21793900       1.04374900       3.65797500
H       -1.72226200      -0.43143900       3.81749300
C        0.35788000       3.32979100       2.08693200
N        1.53405000       3.28343200       2.75301100
H        1.68227200       2.60418300       3.49186800
H        2.07821200       4.13575300       2.83904700
H        0.17605800       4.24617200       1.53790200
H        1.71050100       2.06149000      -0.54524200
Cu       1.88213300       2.50247900       0.88635200
18
Properties=species:S:1:pos:R:3 energy=-1967.143557484755 pbc="F F F"
C       -2.98109900       1.81598100       1.59760500
C       -1.89354700       2.66464500       1.50156400
C       -0.72447000       2.40163100       2.23928800
C       -0.66682100       1.27058500       3.07454800
C       -1.75919600       0.43187400       3.16600700
C       -2.91458400       0.70013100       2.42780300
H       -3.87878600       2.01969300       1.03004900
H       -3.76434400       0.03426700       2.50367300
H       -1.93163500       3.53371900       0.85740000
H        0.22067500       1.04167300       3.64957800
H       -1.71873800      -0.43589300       3.81023400
C        0.35555500       3.33052900       2.08880200
N        1.53311200       3.28685300       2.75217400
H        1.68354300       2.61058200       3.49337100
H        2.07433400       4.14125100       2.83560300
H        0.17327400       4.24524500       1.53700300
H        1.72737000       2.04147600      -0.54094000
Cu       1.88781700       2.50021900       0.88927700
18
Properties=species:S:1:pos:R:3 energy=-1967.143566525038 pbc="F F F"
C       -2.98369300       1.81758500       1.60023300
C       -1.89637300       2.66606500       1.50283000
C       -0.72587000       2.40187000       2.23788300
C       -0.66692300       1.26914100       3.07137100
C       -1.75905100       0.43046700       3.16411700
C       -2.91585400       0.70043000       2.42874000
H       -3.88238200       2.02252700       1.03471000
H       -3.76557100       0.03460300       2.50542200
H       -1.93522800       3.53621000       0.86010200
H        0.22293200       1.04036600       3.64278800
H       -1.71733700      -0.43847700       3.80666100
C        0.35470400       3.32956400       2.08822300
N        1.53230500       3.28805200       2.75161400
H        1.68467000       2.61476700       3.49516200
H        2.07067100       4.14444600       2.83377300
H        0.17182400       4.24354700       1.53531500
H        1.73886400       2.03440200      -0.53812300
Cu       1.89477200       2.49889400       0.89222100
18
Properties=species:S:1:pos:R:3 energy=-1967.143570867148 pbc="F F F"
C       -2.98566900       1.81840800       1.60220700
C       -1.89813900       2.66646200       1.50328800
C       -0.72679800       2.40138600       2.23656600
C       -0.66714000       1.26785400       3.06939100
C       -1.75938600       0.42964200       3.16359800
C       -2.91716900       0.70088100       2.43011100
H       -3.88509500       2.02408700       1.03810200
H       -3.76715400       0.03551000       2.50777500
H       -1.93715300       3.53697600       0.86105200
H        0.22453000       1.03952400       3.63814800
H       -1.71715900      -0.43980600       3.80541500
C        0.35414200       3.32839200       2.08664000
N        1.53139600       3.28788500       2.75085200
H        1.68476000       2.61689300       3.49630200
H        2.06784200       4.14562700       2.83275900
H        0.17090900       4.24213700       1.53344500
H        1.74819400       2.03455600      -0.53696000
Cu       1.90154900       2.49804600       0.89434900
18
Properties=species:S:1:pos:R:3 energy=-1967.143574071338 pbc="F F F"
C       -2.98705700       1.81878000       1.60363200
C       -1.89911900       2.66639800       1.50354800
C       -0.72735300       2.40070600       2.23583100
C       -0.66731000       1.26692200       3.06853200
C       -1.75981200       0.42927900       3.16380600
C       -2.91822700       0.70134000       2.43143200
H       -3.88698400       2.02478600       1.04043900
H       -3.76854000       0.03647100       2.50987900
H       -1.93811900       3.53692700       0.86134900
H        0.22536200       1.03876200       3.63578300
H       -1.71753400      -0.44034400       3.80537600
C        0.35348500       3.32766500       2.08492700
N        1.53039100       3.28726500       2.74994700
H        1.68363000       2.61732000       3.49639200
H        2.06609400       4.14552300       2.83239100
H        0.17025300       4.24135000       1.53170300
H        1.75624600       2.03754300      -0.53709500
Cu       1.90705300       2.49776700       0.89516800
18
Properties=species:S:1:pos:R:3 energy=-1967.143576587725 pbc="F F F"
C       -2.98799300       1.81902700       1.60466000
C       -1.89969400       2.66633400       1.50394900
C       -0.72765300       2.40022400       2.23565100
C       -0.66731500       1.26638800       3.06825700
C       -1.76004400       0.42917300       3.16406000
C       -2.91889100       0.70168100       2.43238000
H       -3.88827300       2.02517000       1.04208600
H       -3.76940500       0.03711700       2.51130500
H       -1.93883100       3.53684200       0.86176000
H        0.22564500       1.03780900       3.63488200
H       -1.71781500      -0.44057000       3.80546600
C        0.35275600       3.32751500       2.08361400
N        1.52942700       3.28694500       2.74916100
H        1.68169500       2.61693900       3.49577000
H        2.06525900       4.14508700       2.83242100
H        0.16978700       4.24108200       1.53020000
H        1.76292400       2.03971400      -0.53757900
Cu       1.91087900       2.49798500       0.89499700
18
Properties=species:S:1:pos:R:3 energy=-1967.143577848857 pbc="F F F"
C       -2.98844300       1.81920300       1.60518600
C       -1.89997300       2.66633200       1.50427500
C       -0.72774000       2.40006900       2.23570000
C       -0.66721400       1.26624300       3.06816600
C       -1.76006100       0.42919700       3.16409800
C       -2.91915200       0.70183100       2.43281300
H       -3.88891100       2.02542500       1.04295300
H       -3.76970600       0.03734300       2.51196100
H       -1.93936900       3.53686600       0.86215600
H        0.22557600       1.03696200       3.63477000
H       -1.71780600      -0.44063500       3.80538700
C        0.35229900       3.32764600       2.08307300
N        1.52885500       3.28707400       2.74882500
H        1.68017100       2.61640800       3.49504300
H        2.06505300       4.14491600       2.83271100
H        0.16958200       4.24105000       1.52935000
H        1.76668800       2.03998600      -0.53785900
Cu       1.91261200       2.49854300       0.89443200
18
Properties=species:S:1:pos:R:3 energy=-1967.143590004254 pbc="F F F"
C       -2.98857500       1.81929000       1.60534000
C       -1.90008400       2.66634200       1.50439500
C       -0.72773900       2.40008700       2.23570000
C       -0.66714700       1.26627500       3.06807100
C       -1.76003800       0.42924500       3.16403500
C       -2.91921700       0.70185200       2.43293000
H       -3.88909700       2.02556500       1.04321600
H       -3.76974000       0.03733700       2.51216500
H       -1.93965700       3.53690100       0.86231700
H        0.22544700       1.03648200       3.63477900
H       -1.71769400      -0.44061800       3.80528000
C        0.35220400       3.32770900       2.08302200
N        1.52871300       3.28729100       2.74883600
H        1.67961000       2.61616100       3.49472300
H        2.06505600       4.14499600       2.83293900
H        0.16957600       4.24098600       1.52905700
H        1.76776900       2.03957000      -0.53785900
Cu       1.91307100       2.49899100       0.89409400
18
Properties=species:S:1:pos:R:3 energy=-1967.143578997734 pbc="F F F"
C       -2.98862000       1.81932900       1.60538700
C       -1.90013800       2.66633400       1.50438200
C       -0.72772700       2.40010600       2.23560500
C       -0.66711600       1.26630600       3.06794200
C       -1.76002400       0.42926300       3.16397200
C       -2.91924700       0.70185200       2.43298100
H       -3.88916000       2.02565200       1.04331400
H       -3.76975600       0.03733100       2.51229100
H       -1.93978200       3.53689800       0.86230800
H        0.22540600       1.03627900       3.63467200
H       -1.71758800      -0.44059700       3.80521800
C        0.35225600       3.32766700       2.08302600
N        1.52870800       3.28738400       2.74892900
H        1.67948700       2.61613100       3.49472800
H        2.06501300       4.14510100       2.83306700
H        0.16964500       4.24086200       1.52890600
H        1.76784100       2.03937700      -0.53774600
Cu       1.91326000       2.49918400       0.89405600
