18
Coordinates from ORCA-job orca_IRC_B E -1967.185827246172
  C          -3.06691766590707      1.83790378227159      1.67520149548346
  C          -1.95502285687637      2.62361830889074      1.41004610267938
  C          -0.71110689841044      2.31699283965256      1.96541259662933
  C          -0.60689846610913      1.21474686878006      2.81234870132963
  C          -1.72645177200057      0.43296862371217      3.09139620882666
  C          -2.95562929238355      0.73577212171825      2.51881754286146
  H          -4.01943795388644      2.08732509127221      1.22524634814070
  H          -3.82118451018737      0.12009980003546      2.72607312424093
  H          -2.04519901717910      3.48498075045374      0.75839558536538
  H           0.34139302462537      0.93895706606959      3.25815826384467
  H          -1.63282426519974     -0.42031764269155      3.75134100691949
  C           0.46073522145575      3.16628925201955      1.54569738043182
  N           1.62650769647129      3.14291474674264      2.48513885677743
  H           1.35167225690789      2.75260013187484      3.38295648278483
  H           1.91164486067927      4.09771075002374      2.68570944827998
  H           0.13430992490195      4.19805661607566      1.42088602338250
  H           0.80537285591476      2.82329346968810      0.56945306324465
  Cu          3.17210020473963      2.18705141026600      1.78087305447859
