18
Coordinates from ORCA-job orca E -1967.185852723740
  C      -3.066918      1.837904      1.675201
  C      -1.955023      2.623618      1.410046
  C      -0.711107      2.316993      1.965413
  C      -0.606898      1.214747      2.812349
  C      -1.726452      0.432969      3.091396
  C      -2.955629      0.735772      2.518818
  H      -4.019438      2.087325      1.225246
  H      -3.821185      0.120100      2.726073
  H      -2.045199      3.484981      0.758396
  H       0.341393      0.938957      3.258158
  H      -1.632824     -0.420318      3.751341
  C       0.460735      3.166289      1.545697
  N       1.626508      3.142915      2.485139
  H       1.351672      2.752600      3.382956
  H       1.911645      4.097711      2.685709
  H       0.134310      4.198057      1.420886
  H       0.805373      2.823293      0.569453
  Cu      3.172100      2.187051      1.780873
18
Coordinates from ORCA-job orca E -1967.186855946177
  C      -3.071393      1.848317      1.701239
  C      -1.961975      2.629331      1.408446
  C      -0.706379      2.314770      1.934042
  C      -0.585011      1.200275      2.761332
  C      -1.699016      0.419634      3.061779
  C      -2.942965      0.738229      2.532261
  H      -4.036638      2.110288      1.286843
  H      -3.806841      0.128656      2.763832
  H      -2.067410      3.499659      0.771166
  H       0.374247      0.915018      3.176330
  H      -1.590229     -0.441187      3.709266
  C       0.464814      3.168749      1.521752
  N       1.601108      3.159988      2.499143
  H       1.272998      2.845915      3.408695
  H       1.923796      4.111983      2.647421
  H       0.136600      4.198045      1.379410
  H       0.833770      2.815393      0.558007
  Cu      3.123586      2.077904      1.942186
18
Coordinates from ORCA-job orca E -1967.188005971942
  C      -3.074601      1.857731      1.733871
  C      -1.974963      2.644659      1.415780
  C      -0.704292      2.322854      1.898872
  C      -0.557425      1.193802      2.702064
  C      -1.659803      0.407698      3.026733
  C      -2.920351      0.736172      2.544829
  H      -4.053656      2.125429      1.357252
  H      -3.777114      0.125594      2.799443
  H      -2.102395      3.523623      0.794915
  H       0.416113      0.904315      3.078563
  H      -1.528514     -0.463452      3.655934
  C       0.468372      3.177398      1.491658
  N       1.569314      3.173212      2.509403
  H       1.172767      2.968919      3.424057
  H       1.959695      4.107906      2.589871
  H       0.143874      4.205523      1.331492
  H       0.866722      2.812775      0.543906
  Cu      3.019320      1.916808      2.164508
18
Coordinates from ORCA-job orca E -1967.188601751474
  C      -3.076151      1.863595      1.754603
  C      -1.980879      2.653803      1.427387
  C      -0.703404      2.325185      1.885434
  C      -0.545557      1.184440      2.671881
  C      -1.642457      0.394736      3.004291
  C      -2.910496      0.731658      2.548009
  H      -4.061283      2.136662      1.398239
  H      -3.763958      0.119413      2.809688
  H      -2.118661      3.539974      0.819178
  H       0.434152      0.890571      3.027547
  H      -1.501057     -0.485076      3.619107
  C       0.470231      3.180026      1.477381
  N       1.559019      3.187957      2.508941
  H       1.134009      3.062982      3.425548
  H       1.992885      4.106549      2.536770
  H       0.144864      4.205956      1.303800
  H       0.883533      2.807514      0.539224
  Cu      2.948271      1.835017      2.306122
18
Coordinates from ORCA-job orca E -1967.189320514529
  C      -3.076816      1.875243      1.784993
  C      -1.982224      2.663269      1.448327
  C      -0.698052      2.315330      1.868518
  C      -0.533170      1.155868      2.627988
  C      -1.628005      0.368907      2.970442
  C      -2.903713      0.726629      2.550961
  H      -4.067648      2.164066      1.458051
  H      -3.756783      0.117746      2.821597
  H      -2.127631      3.563126      0.862358
  H       0.451985      0.850813      2.958252
  H      -1.479942     -0.523551      3.565129
  C       0.473781      3.174055      1.460977
  N       1.548016      3.215324      2.506650
  H       1.100381      3.207698      3.421860
  H       2.033417      4.106595      2.450651
  H       0.137378      4.192956      1.266858
  H       0.910797      2.793643      0.536781
  Cu      2.861292      1.773246      2.502758
18
Coordinates from ORCA-job orca E -1967.190286365059
  C      -3.076542      1.898217      1.836099
  C      -1.977269      2.679000      1.495255
  C      -0.687339      2.292698      1.857517
  C      -0.523406      1.102120      2.569448
  C      -1.620257      0.321743      2.915635
  C      -2.902180      0.718094      2.550077
  H      -4.071176      2.217417      1.551700
  H      -3.757885      0.114223      2.823574
  H      -2.124780      3.602910      0.948534
  H       0.465472      0.770221      2.862102
  H      -1.470478     -0.595756      3.470430
  C       0.482032      3.151033      1.440410
  N       1.535406      3.265133      2.499117
  H       1.074380      3.438298      3.391647
  H       2.087900      4.098234      2.312719
  H       0.125048      4.153531      1.201056
  H       0.954301      2.748049      0.543369
  Cu      2.749834      1.765800      2.794463
18
Coordinates from ORCA-job orca E -1967.191356368779
  C      -3.067725      1.936642      1.922517
  C      -1.959928      2.702475      1.573055
  C      -0.666865      2.256150      1.842805
  C      -0.509071      1.019156      2.470843
  C      -1.611249      0.254675      2.830055
  C      -2.897291      0.711837      2.556019
  H      -4.063501      2.302717      1.706971
  H      -3.757673      0.117558      2.835689
  H      -2.103211      3.661268      1.088955
  H       0.483318      0.636177      2.686754
  H      -1.464963     -0.700142      3.318824
  C       0.499393      3.107420      1.410470
  N       1.500323      3.340046      2.494535
  H       1.026326      3.761013      3.292823
  H       2.154780      4.045039      2.162266
  H       0.120452      4.075923      1.080958
  H       1.031442      2.654319      0.572635
  Cu      2.548506      1.858690      3.216977
18
Coordinates from ORCA-job orca E -1967.192426851119
  C      -3.048079      1.975578      2.022604
  C      -1.931454      2.724327      1.662711
  C      -0.642990      2.217771      1.830473
  C      -0.498415      0.937568      2.365046
  C      -1.606162      0.189627      2.738003
  C      -2.888506      0.707206      2.565967
  H      -4.039202      2.387867      1.882348
  H      -3.753906      0.122497      2.850162
  H      -2.063214      3.716098      1.246861
  H       0.490599      0.500887      2.486607
  H      -1.470718     -0.801913      3.150795
  C       0.522251      3.057029      1.383141
  N       1.453477      3.418037      2.488561
  H       0.983676      4.056331      3.128925
  H       2.215781      3.953232      2.075786
  H       0.132998      3.978193      0.947093
  H       1.119126      2.546581      0.625926
  Cu      2.287801      2.054047      3.612141
18
Coordinates from ORCA-job orca E -1967.193177287551
  C      -3.015983      2.016338      2.128996
  C      -1.892768      2.744461      1.750134
  C      -0.616024      2.181306      1.815287
  C      -0.485783      0.869911      2.259714
  C      -1.599668      0.140947      2.655189
  C      -2.870181      0.711351      2.586776
  H      -3.997091      2.468669      2.060922
  H      -3.739884      0.135346      2.875441
  H      -2.004546      3.761677      1.394695
  H       0.489309      0.382280      2.267851
  H      -1.483584     -0.880867      2.993214
  C       0.550939      3.001302      1.359042
  N       1.379771      3.503924      2.487216
  H       0.911234      4.274648      2.956640
  H       2.235204      3.897753      2.095387
  H       0.180826      3.850521      0.784320
  H       1.216518      2.413657      0.726682
  Cu      2.004774      2.267741      3.865644
18
Coordinates from ORCA-job orca E -1967.193887886114
  C      -3.005642      2.028718      2.149274
  C      -1.889339      2.752622      1.746181
  C      -0.613349      2.181456      1.784534
  C      -0.472280      0.874415      2.233097
  C      -1.582727      0.149027      2.651409
  C      -2.851567      0.722314      2.606096
  H      -3.986893      2.482862      2.098538
  H      -3.716483      0.148265      2.912737
  H      -2.001382      3.769748      1.390292
  H       0.503433      0.391212      2.232508
  H      -1.464792     -0.870667      2.995218
  C       0.560784      2.995321      1.340155
  N       1.339774      3.514369      2.496982
  H       0.846915      4.273626      2.958100
  H       2.214339      3.915407      2.159493
  H       0.222176      3.826523      0.721976
  H       1.243612      2.378153      0.757162
  Cu      1.916483      2.207594      3.829398
18
Coordinates from ORCA-job orca E -1967.194691589157
  C      -2.981215      2.040703      2.197243
  C      -1.880051      2.760156      1.746841
  C      -0.611756      2.176622      1.719379
  C      -0.460980      0.863691      2.161311
  C      -1.559043      0.143451      2.622223
  C      -2.819801      0.730059      2.639012
  H      -3.959643      2.503573      2.202336
  H      -3.674181      0.166309      2.991382
  H      -1.998895      3.782573      1.407738
  H       0.517279      0.396435      2.154195
  H      -1.433629     -0.875194      2.966787
  C       0.585728      2.985942      1.305019
  N       1.294921      3.521198      2.500935
  H       0.793176      4.318017      2.888231
  H       2.217373      3.864089      2.239673
  H       0.285293      3.805992      0.651733
  H       1.301220      2.359271      0.773197
  Cu      1.647267      2.198077      3.895918
18
Coordinates from ORCA-job orca E -1967.195083845622
  C      -2.967642      2.045899      2.221708
  C      -1.872650      2.763662      1.752848
  C      -0.609322      2.177023      1.706719
  C      -0.458311      0.856200      2.136922
  C      -1.551632      0.137573      2.610610
  C      -2.807278      0.732891      2.654674
  H      -3.944172      2.512120      2.249311
  H      -3.659174      0.173514      3.019687
  H      -1.995579      3.786901      1.417210
  H       0.518475      0.386573      2.102030
  H      -1.425983     -0.886348      2.939091
  C       0.599218      2.977129      1.295724
  N       1.284085      3.530523      2.501193
  H       0.776636      4.341781      2.848203
  H       2.219645      3.852881      2.264253
  H       0.314141      3.790332      0.626630
  H       1.324013      2.345201      0.784004
  Cu      1.518596      2.217110      3.932337
18
Coordinates from ORCA-job orca E -1967.195566267258
  C      -2.963608      2.045483      2.215819
  C      -1.876196      2.766709      1.732203
  C      -0.610986      2.192564      1.704221
  C      -0.451003      0.872726      2.150099
  C      -1.537355      0.152086      2.633469
  C      -2.796467      0.742484      2.671590
  H      -3.944938      2.502092      2.240721
  H      -3.645733      0.186078      3.046759
  H      -2.013293      3.781206      1.376159
  H       0.527862      0.406856      2.091872
  H      -1.403420     -0.870480      2.962625
  C       0.604738      2.981654      1.289982
  N       1.293763      3.513967      2.509127
  H       0.759218      4.299194      2.872429
  H       2.216641      3.869478      2.273411
  H       0.330675      3.810844      0.635516
  H       1.318925      2.352006      0.762444
  Cu      1.454240      2.136015      3.894706
18
Coordinates from ORCA-job orca E -1967.195856269522
  C      -2.938361      2.052345      2.248687
  C      -1.861748      2.775506      1.739553
  C      -0.601593      2.198105      1.681245
  C      -0.433319      0.873579      2.119244
  C      -1.507022      0.153597      2.627130
  C      -2.764331      0.749519      2.698491
  H      -3.918884      2.508624      2.301474
  H      -3.606392      0.196770      3.094400
  H      -2.009339      3.791610      1.393192
  H       0.540951      0.403343      2.007909
  H      -1.365790     -0.871959      2.943170
  C       0.618153      2.975707      1.271376
  N       1.273887      3.508040      2.512109
  H       0.754473      4.327206      2.816422
  H       2.221921      3.815187      2.312532
  H       0.366071      3.803270      0.606033
  H       1.339558      2.336940      0.766166
  Cu      1.154830      2.143578      3.924018
18
Coordinates from ORCA-job orca E -1967.196037774515
  C      -2.940783      2.048349      2.243252
  C      -1.864896      2.772885      1.733228
  C      -0.601187      2.198777      1.676120
  C      -0.429644      0.877599      2.120635
  C      -1.501618      0.157393      2.633615
  C      -2.761569      0.748714      2.700868
  H      -3.922703      2.501937      2.290394
  H      -3.601501      0.194279      3.098897
  H      -2.014548      3.788636      1.387275
  H       0.543791      0.406273      2.011368
  H      -1.356477     -0.864302      2.960172
  C       0.613134      2.986157      1.269228
  N       1.282393      3.497545      2.511956
  H       0.784223      4.327082      2.825968
  H       2.234154      3.790309      2.307069
  H       0.354760      3.821833      0.617369
  H       1.330110      2.352413      0.750540
  Cu      1.115423      2.135083      3.925194
18
Coordinates from ORCA-job orca E -1967.196117752153
  C      -2.937225      2.044529      2.241968
  C      -1.867434      2.769860      1.720006
  C      -0.596901      2.202415      1.658901
  C      -0.413669      0.889091      2.116442
  C      -1.479906      0.169789      2.649501
  C      -2.743206      0.752174      2.717625
  H      -3.921216      2.493522      2.283690
  H      -3.575488      0.194824      3.127431
  H      -2.021756      3.783831      1.371785
  H       0.555661      0.412043      1.999774
  H      -1.326732     -0.844135      2.995817
  C       0.607895      3.008332      1.259329
  N       1.285189      3.477870      2.513234
  H       0.833228      4.328731      2.842276
  H       2.251147      3.731512      2.322323
  H       0.345853      3.854854      0.625518
  H       1.319222      2.376921      0.728243
  Cu      0.948401      2.094801      3.889287
18
Coordinates from ORCA-job orca E -1967.196233580003
  C      -2.944416      2.043467      2.235954
  C      -1.868251      2.767733      1.728298
  C      -0.598397      2.197982      1.674395
  C      -0.421975      0.882455      2.126457
  C      -1.496041      0.162461      2.644098
  C      -2.758156      0.746765      2.703700
  H      -3.927051      2.496063      2.271000
  H      -3.595334      0.188184      3.101783
  H      -2.015277      3.783177      1.380783
  H       0.547877      0.403433      2.023007
  H      -1.350028     -0.854495      2.984621
  C       0.605830      3.004036      1.267936
  N       1.291574      3.492975      2.507434
  H       0.829773      4.335678      2.843235
  H       2.249962      3.762480      2.300786
  H       0.332640      3.843361      0.628960
  H       1.317953      2.374253      0.735991
  Cu      1.062380      2.110955      3.904712
18
Coordinates from ORCA-job orca E -1967.196256927720
  C      -2.942772      2.043533      2.238266
  C      -1.866981      2.768047      1.730817
  C      -0.598043      2.198269      1.675725
  C      -0.421771      0.881529      2.126222
  C      -1.495863      0.161191      2.642944
  C      -2.757440      0.746039      2.703792
  H      -3.925117      2.496704      2.275273
  H      -3.594749      0.187594      3.101784
  H      -2.013813      3.783516      1.383125
  H       0.547809      0.402099      2.021163
  H      -1.350292     -0.856956      2.980099
  C       0.607325      3.002923      1.268120
  N       1.291934      3.495314      2.506538
  H       0.830582      4.340198      2.837019
  H       2.251887      3.759691      2.301687
  H       0.332396      3.841277      0.628032
  H       1.320278      2.374586      0.736072
  Cu      1.047694      2.115409      3.906474
18
Coordinates from ORCA-job orca E -1967.196298407981
  C      -2.941284      2.042934      2.238754
  C      -1.866143      2.767871      1.732331
  C      -0.597209      2.200064      1.679560
  C      -0.419567      0.882977      2.131396
  C      -1.494502      0.161860      2.646028
  C      -2.756220      0.745394      2.704336
  H      -3.923707      2.496092      2.275262
  H      -3.593712      0.186279      3.100939
  H      -2.011999      3.782458      1.381407
  H       0.549752      0.402324      2.027506
  H      -1.349260     -0.857267      2.980446
  C       0.608146      3.005118      1.268949
  N       1.294533      3.499246      2.504077
  H       0.836588      4.345861      2.833491
  H       2.257572      3.753252      2.302658
  H       0.325421      3.842190      0.629703
  H       1.320968      2.381336      0.732066
  Cu      1.023687      2.102973      3.894241
18
Coordinates from ORCA-job orca E -1967.196296395090
  C      -2.939364      2.042667      2.242625
  C      -1.864142      2.767797      1.736384
  C      -0.595671      2.198849      1.679815
  C      -0.418668      0.880123      2.127824
  C      -1.493725      0.159051      2.642880
  C      -2.754851      0.743894      2.704964
  H      -3.921254      2.496759      2.281561
  H      -3.592339      0.184570      3.101223
  H      -2.009014      3.783527      1.388470
  H       0.549282      0.397414      2.019293
  H      -1.349023     -0.861104      2.974367
  C       0.608812      3.004974      1.269088
  N       1.293610      3.503889      2.502860
  H       0.844567      4.358706      2.822769
  H       2.261150      3.742941      2.305081
  H       0.323843      3.838786      0.626669
  H       1.323636      2.381354      0.734542
  Cu      0.996216      2.116767      3.902735
18
Coordinates from ORCA-job orca E -1967.196302244187
  C      -2.940253      2.041817      2.240447
  C      -1.865456      2.767579      1.733580
  C      -0.595990      2.200062      1.679015
  C      -0.417779      0.882295      2.129974
  C      -1.492300      0.160897      2.645774
  C      -2.754439      0.744356      2.705701
  H      -3.922896      2.494398      2.277801
  H      -3.591627      0.184903      3.102367
  H      -2.011480      3.782715      1.384529
  H       0.550809      0.400741      2.022408
  H      -1.346152     -0.858190      2.979859
  C       0.607452      3.007660      1.268799
  N       1.294655      3.502003      2.503242
  H       0.849020      4.357587      2.825594
  H       2.263158      3.737105      2.305696
  H       0.321597      3.843183      0.629163
  H       1.321111      2.385403      0.730884
  Cu      0.993631      2.106451      3.898319
18
Coordinates from ORCA-job orca E -1967.196311265047
  C      -2.941106      2.040837      2.238474
  C      -1.867091      2.767465      1.730247
  C      -0.596751      2.201516      1.677213
  C      -0.417151      0.884667      2.130945
  C      -1.490446      0.162848      2.648364
  C      -2.753598      0.744949      2.706932
  H      -3.924680      2.491469      2.274704
  H      -3.590234      0.185548      3.104807
  H      -2.015305      3.781902      1.380226
  H       0.552291      0.404990      2.022782
  H      -1.342363     -0.855066      2.985112
  C       0.606017      3.010149      1.268177
  N       1.295030      3.499095      2.504258
  H       0.853920      4.356757      2.827203
  H       2.264939      3.728986      2.307413
  H       0.321316      3.848255      0.631671
  H       1.318420      2.388642      0.727502
  Cu      0.989854      2.097955      3.897120
18
Coordinates from ORCA-job orca E -1967.196323839587
  C      -2.941329      2.040551      2.238204
  C      -1.867589      2.767437      1.729685
  C      -0.597156      2.201956      1.676913
  C      -0.417166      0.885230      2.130951
  C      -1.490101      0.163166      2.648667
  C      -2.753382      0.744939      2.707185
  H      -3.925103      2.490759      2.274298
  H      -3.589815      0.185490      3.105430
  H      -2.016569      3.781665      1.379376
  H       0.552470      0.406034      2.022099
  H      -1.341655     -0.854635      2.985597
  C       0.605790      3.010472      1.268049
  N       1.295070      3.498376      2.504484
  H       0.855440      4.357071      2.826713
  H       2.265407      3.726788      2.307912
  H       0.321884      3.849415      0.632339
  H       1.317801      2.388830      0.727017
  Cu      0.989068      2.097421      3.898234
18
Coordinates from ORCA-job orca E -1967.196331980783
  C      -2.941528      2.040377      2.238058
  C      -1.867945      2.767398      1.729485
  C      -0.597475      2.202259      1.676936
  C      -0.417197      0.885592      2.131022
  C      -1.490001      0.163327      2.648766
  C      -2.753316      0.744852      2.707232
  H      -3.925359      2.490471      2.274045
  H      -3.589596      0.185277      3.105641
  H      -2.017320      3.781486      1.378918
  H       0.552500      0.406534      2.021851
  H      -1.341495     -0.854492      2.985622
  C       0.605743      3.010539      1.268033
  N       1.295233      3.497963      2.504527
  H       0.856353      4.357197      2.826371
  H       2.265709      3.725954      2.308038
  H       0.322243      3.850020      0.632859
  H       1.317414      2.388724      0.726797
  Cu      0.989102      2.097486      3.898949
18
Coordinates from ORCA-job orca E -1967.196313690698
  C      -2.941621      2.040300      2.237987
  C      -1.868092      2.767376      1.729412
  C      -0.597580      2.202397      1.676970
  C      -0.417144      0.885763      2.131105
  C      -1.489929      0.163418      2.648844
  C      -2.753282      0.744808      2.707248
  H      -3.925456      2.490392      2.273895
  H      -3.589484      0.185135      3.105680
  H      -2.017551      3.781414      1.378732
  H       0.552538      0.406662      2.021936
  H      -1.341428     -0.854400      2.985702
  C       0.605728      3.010611      1.268032
  N       1.295385      3.497788      2.504514
  H       0.856805      4.357194      2.826320
  H       2.265909      3.725632      2.308052
  H       0.322210      3.850284      0.633114
  H       1.317220      2.388777      0.726606
  Cu      0.988837      2.097412      3.899001
