18
Coordinates from ORCA-job orca E -1967.196313690698
  C          -2.94162078373625      2.04030032143187      2.23798713482194
  C          -1.86809223006989      2.76737565769918      1.72941224852590
  C          -0.59758031024154      2.20239742700878      1.67697023908097
  C          -0.41714444995925      0.88576337533558      2.13110490876505
  C          -1.48992944108015      0.16341799193323      2.64884410439707
  C          -2.75328189823892      0.74480752707630      2.70724785738436
  H          -3.92545609710379      2.49039166054139      2.27389467595602
  H          -3.58948433242155      0.18513525413661      3.10568045500790
  H          -2.01755075594717      3.78141399533422      1.37873241523348
  H           0.55253757503138      0.40666247013113      2.02193588354502
  H          -1.34142765044534     -0.85440012308569      2.98570218252283
  C           0.60572832981283      3.01061130817323      1.26803230101537
  N           1.29538464390114      3.49778786609245      2.50451354993327
  H           0.85680474122028      4.35719383029658      2.82632026053815
  H           2.26590868124833      3.72563194672826      2.30805174689450
  H           0.32221020331615      3.85028420589010      0.63311434787434
  H           1.31722003852186      2.38877732131450      0.72660630980633
  Cu          0.98883708374801      2.09741195081760      3.89900066439833
