18
Properties=species:S:1:pos:R:3 energy=-1967.18585272374 pbc="F F F"
C       -3.06691800       1.83790400       1.67520100
C       -1.95502300       2.62361800       1.41004600
C       -0.71110700       2.31699300       1.96541300
C       -0.60689800       1.21474700       2.81234900
C       -1.72645200       0.43296900       3.09139600
C       -2.95562900       0.73577200       2.51881800
H       -4.01943800       2.08732500       1.22524600
H       -3.82118500       0.12010000       2.72607300
H       -2.04519900       3.48498100       0.75839600
H        0.34139300       0.93895700       3.25815800
H       -1.63282400      -0.42031800       3.75134100
C        0.46073500       3.16628900       1.54569700
N        1.62650800       3.14291500       2.48513900
H        1.35167200       2.75260000       3.38295600
H        1.91164500       4.09771100       2.68570900
H        0.13431000       4.19805700       1.42088600
H        0.80537300       2.82329300       0.56945300
Cu       3.17210000       2.18705100       1.78087300
18
Properties=species:S:1:pos:R:3 energy=-1967.186855946177 pbc="F F F"
C       -3.07139300       1.84831700       1.70123900
C       -1.96197500       2.62933100       1.40844600
C       -0.70637900       2.31477000       1.93404200
C       -0.58501100       1.20027500       2.76133200
C       -1.69901600       0.41963400       3.06177900
C       -2.94296500       0.73822900       2.53226100
H       -4.03663800       2.11028800       1.28684300
H       -3.80684100       0.12865600       2.76383200
H       -2.06741000       3.49965900       0.77116600
H        0.37424700       0.91501800       3.17633000
H       -1.59022900      -0.44118700       3.70926600
C        0.46481400       3.16874900       1.52175200
N        1.60110800       3.15998800       2.49914300
H        1.27299800       2.84591500       3.40869500
H        1.92379600       4.11198300       2.64742100
H        0.13660000       4.19804500       1.37941000
H        0.83377000       2.81539300       0.55800700
Cu       3.12358600       2.07790400       1.94218600
18
Properties=species:S:1:pos:R:3 energy=-1967.188005971942 pbc="F F F"
C       -3.07460100       1.85773100       1.73387100
C       -1.97496300       2.64465900       1.41578000
C       -0.70429200       2.32285400       1.89887200
C       -0.55742500       1.19380200       2.70206400
C       -1.65980300       0.40769800       3.02673300
C       -2.92035100       0.73617200       2.54482900
H       -4.05365600       2.12542900       1.35725200
H       -3.77711400       0.12559400       2.79944300
H       -2.10239500       3.52362300       0.79491500
H        0.41611300       0.90431500       3.07856300
H       -1.52851400      -0.46345200       3.65593400
C        0.46837200       3.17739800       1.49165800
N        1.56931400       3.17321200       2.50940300
H        1.17276700       2.96891900       3.42405700
H        1.95969500       4.10790600       2.58987100
H        0.14387400       4.20552300       1.33149200
H        0.86672200       2.81277500       0.54390600
Cu       3.01932000       1.91680800       2.16450800
18
Properties=species:S:1:pos:R:3 energy=-1967.188601751474 pbc="F F F"
C       -3.07615100       1.86359500       1.75460300
C       -1.98087900       2.65380300       1.42738700
C       -0.70340400       2.32518500       1.88543400
C       -0.54555700       1.18444000       2.67188100
C       -1.64245700       0.39473600       3.00429100
C       -2.91049600       0.73165800       2.54800900
H       -4.06128300       2.13666200       1.39823900
H       -3.76395800       0.11941300       2.80968800
H       -2.11866100       3.53997400       0.81917800
H        0.43415200       0.89057100       3.02754700
H       -1.50105700      -0.48507600       3.61910700
C        0.47023100       3.18002600       1.47738100
N        1.55901900       3.18795700       2.50894100
H        1.13400900       3.06298200       3.42554800
H        1.99288500       4.10654900       2.53677000
H        0.14486400       4.20595600       1.30380000
H        0.88353300       2.80751400       0.53922400
Cu       2.94827100       1.83501700       2.30612200
18
Properties=species:S:1:pos:R:3 energy=-1967.189320514529 pbc="F F F"
C       -3.07681600       1.87524300       1.78499300
C       -1.98222400       2.66326900       1.44832700
C       -0.69805200       2.31533000       1.86851800
C       -0.53317000       1.15586800       2.62798800
C       -1.62800500       0.36890700       2.97044200
C       -2.90371300       0.72662900       2.55096100
H       -4.06764800       2.16406600       1.45805100
H       -3.75678300       0.11774600       2.82159700
H       -2.12763100       3.56312600       0.86235800
H        0.45198500       0.85081300       2.95825200
H       -1.47994200      -0.52355100       3.56512900
C        0.47378100       3.17405500       1.46097700
N        1.54801600       3.21532400       2.50665000
H        1.10038100       3.20769800       3.42186000
H        2.03341700       4.10659500       2.45065100
H        0.13737800       4.19295600       1.26685800
H        0.91079700       2.79364300       0.53678100
Cu       2.86129200       1.77324600       2.50275800
18
Properties=species:S:1:pos:R:3 energy=-1967.190286365059 pbc="F F F"
C       -3.07654200       1.89821700       1.83609900
C       -1.97726900       2.67900000       1.49525500
C       -0.68733900       2.29269800       1.85751700
C       -0.52340600       1.10212000       2.56944800
C       -1.62025700       0.32174300       2.91563500
C       -2.90218000       0.71809400       2.55007700
H       -4.07117600       2.21741700       1.55170000
H       -3.75788500       0.11422300       2.82357400
H       -2.12478000       3.60291000       0.94853400
H        0.46547200       0.77022100       2.86210200
H       -1.47047800      -0.59575600       3.47043000
C        0.48203200       3.15103300       1.44041000
N        1.53540600       3.26513300       2.49911700
H        1.07438000       3.43829800       3.39164700
H        2.08790000       4.09823400       2.31271900
H        0.12504800       4.15353100       1.20105600
H        0.95430100       2.74804900       0.54336900
Cu       2.74983400       1.76580000       2.79446300
18
Properties=species:S:1:pos:R:3 energy=-1967.191356368779 pbc="F F F"
C       -3.06772500       1.93664200       1.92251700
C       -1.95992800       2.70247500       1.57305500
C       -0.66686500       2.25615000       1.84280500
C       -0.50907100       1.01915600       2.47084300
C       -1.61124900       0.25467500       2.83005500
C       -2.89729100       0.71183700       2.55601900
H       -4.06350100       2.30271700       1.70697100
H       -3.75767300       0.11755800       2.83568900
H       -2.10321100       3.66126800       1.08895500
H        0.48331800       0.63617700       2.68675400
H       -1.46496300      -0.70014200       3.31882400
C        0.49939300       3.10742000       1.41047000
N        1.50032300       3.34004600       2.49453500
H        1.02632600       3.76101300       3.29282300
H        2.15478000       4.04503900       2.16226600
H        0.12045200       4.07592300       1.08095800
H        1.03144200       2.65431900       0.57263500
Cu       2.54850600       1.85869000       3.21697700
18
Properties=species:S:1:pos:R:3 energy=-1967.192426851119 pbc="F F F"
C       -3.04807900       1.97557800       2.02260400
C       -1.93145400       2.72432700       1.66271100
C       -0.64299000       2.21777100       1.83047300
C       -0.49841500       0.93756800       2.36504600
C       -1.60616200       0.18962700       2.73800300
C       -2.88850600       0.70720600       2.56596700
H       -4.03920200       2.38786700       1.88234800
H       -3.75390600       0.12249700       2.85016200
H       -2.06321400       3.71609800       1.24686100
H        0.49059900       0.50088700       2.48660700
H       -1.47071800      -0.80191300       3.15079500
C        0.52225100       3.05702900       1.38314100
N        1.45347700       3.41803700       2.48856100
H        0.98367600       4.05633100       3.12892500
H        2.21578100       3.95323200       2.07578600
H        0.13299800       3.97819300       0.94709300
H        1.11912600       2.54658100       0.62592600
Cu       2.28780100       2.05404700       3.61214100
18
Properties=species:S:1:pos:R:3 energy=-1967.193177287551 pbc="F F F"
C       -3.01598300       2.01633800       2.12899600
C       -1.89276800       2.74446100       1.75013400
C       -0.61602400       2.18130600       1.81528700
C       -0.48578300       0.86991100       2.25971400
C       -1.59966800       0.14094700       2.65518900
C       -2.87018100       0.71135100       2.58677600
H       -3.99709100       2.46866900       2.06092200
H       -3.73988400       0.13534600       2.87544100
H       -2.00454600       3.76167700       1.39469500
H        0.48930900       0.38228000       2.26785100
H       -1.48358400      -0.88086700       2.99321400
C        0.55093900       3.00130200       1.35904200
N        1.37977100       3.50392400       2.48721600
H        0.91123400       4.27464800       2.95664000
H        2.23520400       3.89775300       2.09538700
H        0.18082600       3.85052100       0.78432000
H        1.21651800       2.41365700       0.72668200
Cu       2.00477400       2.26774100       3.86564400
18
Properties=species:S:1:pos:R:3 energy=-1967.193887886114 pbc="F F F"
C       -3.00564200       2.02871800       2.14927400
C       -1.88933900       2.75262200       1.74618100
C       -0.61334900       2.18145600       1.78453400
C       -0.47228000       0.87441500       2.23309700
C       -1.58272700       0.14902700       2.65140900
C       -2.85156700       0.72231400       2.60609600
H       -3.98689300       2.48286200       2.09853800
H       -3.71648300       0.14826500       2.91273700
H       -2.00138200       3.76974800       1.39029200
H        0.50343300       0.39121200       2.23250800
H       -1.46479200      -0.87066700       2.99521800
C        0.56078400       2.99532100       1.34015500
N        1.33977400       3.51436900       2.49698200
H        0.84691500       4.27362600       2.95810000
H        2.21433900       3.91540700       2.15949300
H        0.22217600       3.82652300       0.72197600
H        1.24361200       2.37815300       0.75716200
Cu       1.91648300       2.20759400       3.82939800
18
Properties=species:S:1:pos:R:3 energy=-1967.194691589157 pbc="F F F"
C       -2.98121500       2.04070300       2.19724300
C       -1.88005100       2.76015600       1.74684100
C       -0.61175600       2.17662200       1.71937900
C       -0.46098000       0.86369100       2.16131100
C       -1.55904300       0.14345100       2.62222300
C       -2.81980100       0.73005900       2.63901200
H       -3.95964300       2.50357300       2.20233600
H       -3.67418100       0.16630900       2.99138200
H       -1.99889500       3.78257300       1.40773800
H        0.51727900       0.39643500       2.15419500
H       -1.43362900      -0.87519400       2.96678700
C        0.58572800       2.98594200       1.30501900
N        1.29492100       3.52119800       2.50093500
H        0.79317600       4.31801700       2.88823100
H        2.21737300       3.86408900       2.23967300
H        0.28529300       3.80599200       0.65173300
H        1.30122000       2.35927100       0.77319700
Cu       1.64726700       2.19807700       3.89591800
18
Properties=species:S:1:pos:R:3 energy=-1967.195083845622 pbc="F F F"
C       -2.96764200       2.04589900       2.22170800
C       -1.87265000       2.76366200       1.75284800
C       -0.60932200       2.17702300       1.70671900
C       -0.45831100       0.85620000       2.13692200
C       -1.55163200       0.13757300       2.61061000
C       -2.80727800       0.73289100       2.65467400
H       -3.94417200       2.51212000       2.24931100
H       -3.65917400       0.17351400       3.01968700
H       -1.99557900       3.78690100       1.41721000
H        0.51847500       0.38657300       2.10203000
H       -1.42598300      -0.88634800       2.93909100
C        0.59921800       2.97712900       1.29572400
N        1.28408500       3.53052300       2.50119300
H        0.77663600       4.34178100       2.84820300
H        2.21964500       3.85288100       2.26425300
H        0.31414100       3.79033200       0.62663000
H        1.32401300       2.34520100       0.78400400
Cu       1.51859600       2.21711000       3.93233700
18
Properties=species:S:1:pos:R:3 energy=-1967.195566267258 pbc="F F F"
C       -2.96360800       2.04548300       2.21581900
C       -1.87619600       2.76670900       1.73220300
C       -0.61098600       2.19256400       1.70422100
C       -0.45100300       0.87272600       2.15009900
C       -1.53735500       0.15208600       2.63346900
C       -2.79646700       0.74248400       2.67159000
H       -3.94493800       2.50209200       2.24072100
H       -3.64573300       0.18607800       3.04675900
H       -2.01329300       3.78120600       1.37615900
H        0.52786200       0.40685600       2.09187200
H       -1.40342000      -0.87048000       2.96262500
C        0.60473800       2.98165400       1.28998200
N        1.29376300       3.51396700       2.50912700
H        0.75921800       4.29919400       2.87242900
H        2.21664100       3.86947800       2.27341100
H        0.33067500       3.81084400       0.63551600
H        1.31892500       2.35200600       0.76244400
Cu       1.45424000       2.13601500       3.89470600
18
Properties=species:S:1:pos:R:3 energy=-1967.195856269522 pbc="F F F"
C       -2.93836100       2.05234500       2.24868700
C       -1.86174800       2.77550600       1.73955300
C       -0.60159300       2.19810500       1.68124500
C       -0.43331900       0.87357900       2.11924400
C       -1.50702200       0.15359700       2.62713000
C       -2.76433100       0.74951900       2.69849100
H       -3.91888400       2.50862400       2.30147400
H       -3.60639200       0.19677000       3.09440000
H       -2.00933900       3.79161000       1.39319200
H        0.54095100       0.40334300       2.00790900
H       -1.36579000      -0.87195900       2.94317000
C        0.61815300       2.97570700       1.27137600
N        1.27388700       3.50804000       2.51210900
H        0.75447300       4.32720600       2.81642200
H        2.22192100       3.81518700       2.31253200
H        0.36607100       3.80327000       0.60603300
H        1.33955800       2.33694000       0.76616600
Cu       1.15483000       2.14357800       3.92401800
18
Properties=species:S:1:pos:R:3 energy=-1967.196037774515 pbc="F F F"
C       -2.94078300       2.04834900       2.24325200
C       -1.86489600       2.77288500       1.73322800
C       -0.60118700       2.19877700       1.67612000
C       -0.42964400       0.87759900       2.12063500
C       -1.50161800       0.15739300       2.63361500
C       -2.76156900       0.74871400       2.70086800
H       -3.92270300       2.50193700       2.29039400
H       -3.60150100       0.19427900       3.09889700
H       -2.01454800       3.78863600       1.38727500
H        0.54379100       0.40627300       2.01136800
H       -1.35647700      -0.86430200       2.96017200
C        0.61313400       2.98615700       1.26922800
N        1.28239300       3.49754500       2.51195600
H        0.78422300       4.32708200       2.82596800
H        2.23415400       3.79030900       2.30706900
H        0.35476000       3.82183300       0.61736900
H        1.33011000       2.35241300       0.75054000
Cu       1.11542300       2.13508300       3.92519400
18
Properties=species:S:1:pos:R:3 energy=-1967.196117752153 pbc="F F F"
C       -2.93722500       2.04452900       2.24196800
C       -1.86743400       2.76986000       1.72000600
C       -0.59690100       2.20241500       1.65890100
C       -0.41366900       0.88909100       2.11644200
C       -1.47990600       0.16978900       2.64950100
C       -2.74320600       0.75217400       2.71762500
H       -3.92121600       2.49352200       2.28369000
H       -3.57548800       0.19482400       3.12743100
H       -2.02175600       3.78383100       1.37178500
H        0.55566100       0.41204300       1.99977400
H       -1.32673200      -0.84413500       2.99581700
C        0.60789500       3.00833200       1.25932900
N        1.28518900       3.47787000       2.51323400
H        0.83322800       4.32873100       2.84227600
H        2.25114700       3.73151200       2.32232300
H        0.34585300       3.85485400       0.62551800
H        1.31922200       2.37692100       0.72824300
Cu       0.94840100       2.09480100       3.88928700
18
Properties=species:S:1:pos:R:3 energy=-1967.196233580003 pbc="F F F"
C       -2.94441600       2.04346700       2.23595400
C       -1.86825100       2.76773300       1.72829800
C       -0.59839700       2.19798200       1.67439500
C       -0.42197500       0.88245500       2.12645700
C       -1.49604100       0.16246100       2.64409800
C       -2.75815600       0.74676500       2.70370000
H       -3.92705100       2.49606300       2.27100000
H       -3.59533400       0.18818400       3.10178300
H       -2.01527700       3.78317700       1.38078300
H        0.54787700       0.40343300       2.02300700
H       -1.35002800      -0.85449500       2.98462100
C        0.60583000       3.00403600       1.26793600
N        1.29157400       3.49297500       2.50743400
H        0.82977300       4.33567800       2.84323500
H        2.24996200       3.76248000       2.30078600
H        0.33264000       3.84336100       0.62896000
H        1.31795300       2.37425300       0.73599100
Cu       1.06238000       2.11095500       3.90471200
18
Properties=species:S:1:pos:R:3 energy=-1967.19625692772 pbc="F F F"
C       -2.94277200       2.04353300       2.23826600
C       -1.86698100       2.76804700       1.73081700
C       -0.59804300       2.19826900       1.67572500
C       -0.42177100       0.88152900       2.12622200
C       -1.49586300       0.16119100       2.64294400
C       -2.75744000       0.74603900       2.70379200
H       -3.92511700       2.49670400       2.27527300
H       -3.59474900       0.18759400       3.10178400
H       -2.01381300       3.78351600       1.38312500
H        0.54780900       0.40209900       2.02116300
H       -1.35029200      -0.85695600       2.98009900
C        0.60732500       3.00292300       1.26812000
N        1.29193400       3.49531400       2.50653800
H        0.83058200       4.34019800       2.83701900
H        2.25188700       3.75969100       2.30168700
H        0.33239600       3.84127700       0.62803200
H        1.32027800       2.37458600       0.73607200
Cu       1.04769400       2.11540900       3.90647400
18
Properties=species:S:1:pos:R:3 energy=-1967.196298407981 pbc="F F F"
C       -2.94128400       2.04293400       2.23875400
C       -1.86614300       2.76787100       1.73233100
C       -0.59720900       2.20006400       1.67956000
C       -0.41956700       0.88297700       2.13139600
C       -1.49450200       0.16186000       2.64602800
C       -2.75622000       0.74539400       2.70433600
H       -3.92370700       2.49609200       2.27526200
H       -3.59371200       0.18627900       3.10093900
H       -2.01199900       3.78245800       1.38140700
H        0.54975200       0.40232400       2.02750600
H       -1.34926000      -0.85726700       2.98044600
C        0.60814600       3.00511800       1.26894900
N        1.29453300       3.49924600       2.50407700
H        0.83658800       4.34586100       2.83349100
H        2.25757200       3.75325200       2.30265800
H        0.32542100       3.84219000       0.62970300
H        1.32096800       2.38133600       0.73206600
Cu       1.02368700       2.10297300       3.89424100
18
Properties=species:S:1:pos:R:3 energy=-1967.19629639509 pbc="F F F"
C       -2.93936400       2.04266700       2.24262500
C       -1.86414200       2.76779700       1.73638400
C       -0.59567100       2.19884900       1.67981500
C       -0.41866800       0.88012300       2.12782400
C       -1.49372500       0.15905100       2.64288000
C       -2.75485100       0.74389400       2.70496400
H       -3.92125400       2.49675900       2.28156100
H       -3.59233900       0.18457000       3.10122300
H       -2.00901400       3.78352700       1.38847000
H        0.54928200       0.39741400       2.01929300
H       -1.34902300      -0.86110400       2.97436700
C        0.60881200       3.00497400       1.26908800
N        1.29361000       3.50388900       2.50286000
H        0.84456700       4.35870600       2.82276900
H        2.26115000       3.74294100       2.30508100
H        0.32384300       3.83878600       0.62666900
H        1.32363600       2.38135400       0.73454200
Cu       0.99621600       2.11676700       3.90273500
18
Properties=species:S:1:pos:R:3 energy=-1967.196302244187 pbc="F F F"
C       -2.94025300       2.04181700       2.24044700
C       -1.86545600       2.76757900       1.73358000
C       -0.59599000       2.20006200       1.67901500
C       -0.41777900       0.88229500       2.12997400
C       -1.49230000       0.16089700       2.64577400
C       -2.75443900       0.74435600       2.70570100
H       -3.92289600       2.49439800       2.27780100
H       -3.59162700       0.18490300       3.10236700
H       -2.01148000       3.78271500       1.38452900
H        0.55080900       0.40074100       2.02240800
H       -1.34615200      -0.85819000       2.97985900
C        0.60745200       3.00766000       1.26879900
N        1.29465500       3.50200300       2.50324200
H        0.84902000       4.35758700       2.82559400
H        2.26315800       3.73710500       2.30569600
H        0.32159700       3.84318300       0.62916300
H        1.32111100       2.38540300       0.73088400
Cu       0.99363100       2.10645100       3.89831900
18
Properties=species:S:1:pos:R:3 energy=-1967.196311265047 pbc="F F F"
C       -2.94110600       2.04083700       2.23847400
C       -1.86709100       2.76746500       1.73024700
C       -0.59675100       2.20151600       1.67721300
C       -0.41715100       0.88466700       2.13094500
C       -1.49044600       0.16284800       2.64836400
C       -2.75359800       0.74494900       2.70693200
H       -3.92468000       2.49146900       2.27470400
H       -3.59023400       0.18554800       3.10480700
H       -2.01530500       3.78190200       1.38022600
H        0.55229100       0.40499000       2.02278200
H       -1.34236300      -0.85506600       2.98511200
C        0.60601700       3.01014900       1.26817700
N        1.29503000       3.49909500       2.50425800
H        0.85392000       4.35675700       2.82720300
H        2.26493900       3.72898600       2.30741300
H        0.32131600       3.84825500       0.63167100
H        1.31842000       2.38864200       0.72750200
Cu       0.98985400       2.09795500       3.89712000
18
Properties=species:S:1:pos:R:3 energy=-1967.196323839587 pbc="F F F"
C       -2.94132900       2.04055100       2.23820400
C       -1.86758900       2.76743700       1.72968500
C       -0.59715600       2.20195600       1.67691300
C       -0.41716600       0.88523000       2.13095100
C       -1.49010100       0.16316600       2.64866700
C       -2.75338200       0.74493900       2.70718500
H       -3.92510300       2.49075900       2.27429800
H       -3.58981500       0.18549000       3.10543000
H       -2.01656900       3.78166500       1.37937600
H        0.55247000       0.40603400       2.02209900
H       -1.34165500      -0.85463500       2.98559700
C        0.60579000       3.01047200       1.26804900
N        1.29507000       3.49837600       2.50448400
H        0.85544000       4.35707100       2.82671300
H        2.26540700       3.72678800       2.30791200
H        0.32188400       3.84941500       0.63233900
H        1.31780100       2.38883000       0.72701700
Cu       0.98906800       2.09742100       3.89823400
18
Properties=species:S:1:pos:R:3 energy=-1967.196331980783 pbc="F F F"
C       -2.94152800       2.04037700       2.23805800
C       -1.86794500       2.76739800       1.72948500
C       -0.59747500       2.20225900       1.67693600
C       -0.41719700       0.88559200       2.13102200
C       -1.49000100       0.16332700       2.64876600
C       -2.75331600       0.74485200       2.70723200
H       -3.92535900       2.49047100       2.27404500
H       -3.58959600       0.18527700       3.10564100
H       -2.01732000       3.78148600       1.37891800
H        0.55250000       0.40653400       2.02185100
H       -1.34149500      -0.85449200       2.98562200
C        0.60574300       3.01053900       1.26803300
N        1.29523300       3.49796300       2.50452700
H        0.85635300       4.35719700       2.82637100
H        2.26570900       3.72595400       2.30803800
H        0.32224300       3.85002000       0.63285900
H        1.31741400       2.38872400       0.72679700
Cu       0.98910200       2.09748600       3.89894900
18
Properties=species:S:1:pos:R:3 energy=-1967.196313690698 pbc="F F F"
C       -2.94162100       2.04030000       2.23798700
C       -1.86809200       2.76737600       1.72941200
C       -0.59758000       2.20239700       1.67697000
C       -0.41714400       0.88576300       2.13110500
C       -1.48992900       0.16341800       2.64884400
C       -2.75328200       0.74480800       2.70724800
H       -3.92545600       2.49039200       2.27389500
H       -3.58948400       0.18513500       3.10568000
H       -2.01755100       3.78141400       1.37873200
H        0.55253800       0.40666200       2.02193600
H       -1.34142800      -0.85440000       2.98570200
C        0.60572800       3.01061100       1.26803200
N        1.29538500       3.49778800       2.50451400
H        0.85680500       4.35719400       2.82632000
H        2.26590900       3.72563200       2.30805200
H        0.32221000       3.85028400       0.63311400
H        1.31722000       2.38877700       0.72660600
Cu       0.98883700       2.09741200       3.89900100
