18
Coordinates from ORCA-job orca E -1967.143578997734
  C          -2.98861954172928      1.81932894257466      1.60538693858334
  C          -1.90013779621059      2.66633351339218      1.50438227243294
  C          -0.72772668848882      2.40010644529452      2.23560518685228
  C          -0.66711594693579      1.26630611562041      3.06794198177906
  C          -1.76002392030368      0.42926317638480      3.16397230062734
  C          -2.91924721799010      0.70185194994461      2.43298137991234
  H          -3.88916001040715      2.02565208209983      1.04331439242833
  H          -3.76975593927812      0.03733129106697      2.51229138880525
  H          -1.93978207941779      3.53689838403902      0.86230819932375
  H           0.22540576444389      1.03627923425343      3.63467196829943
  H          -1.71758766698949     -0.44059666305569      3.80521804752376
  C           0.35225557590206      3.32766662117293      2.08302599520848
  N           1.52870847198896      3.28738419151216      2.74892853011224
  H           1.67948711496724      2.61613067890538      3.49472838009256
  H           2.06501340501824      4.14510106849596      2.83306733642382
  H           0.16964530900244      4.24086228478445      1.52890576275089
  H           1.76784121655744      2.03937654148886     -0.53774581434892
  Cu          1.91325994987055      2.49918414202549      0.89405575319305
