18
Coordinates from ORCA-job orca E -1967.195781882409
  C      -2.988620      1.819329      1.605387
  C      -1.900138      2.666334      1.504382
  C      -0.727727      2.400106      2.235605
  C      -0.667116      1.266306      3.067942
  C      -1.760024      0.429263      3.163972
  C      -2.919247      0.701852      2.432981
  H      -3.890694      2.021161      1.042237
  H      -3.768224      0.034995      2.510739
  H      -1.939148      3.542178      0.868352
  H       0.260812      1.020018      3.577331
  H      -1.714517     -0.453910      3.788410
  C       0.420312      3.375268      2.239568
  N       0.320943      4.232781      3.463300
  H      -0.299640      5.018480      3.283608
  H       1.226608      4.628934      3.698357
  H       0.418379      3.993049      1.341216
  H       1.370535      2.845853      2.294932
  Cu     -0.529929      3.095502      4.868359
18
Coordinates from ORCA-job orca E -1967.196289789754
  C      -2.983767      1.812212      1.607532
  C      -1.890435      2.664406      1.508022
  C      -0.726271      2.403922      2.232942
  C      -0.669633      1.269450      3.060536
  C      -1.768109      0.424491      3.162238
  C      -2.926693      0.698570      2.439754
  H      -3.883833      2.016533      1.042080
  H      -3.778139      0.034899      2.517741
  H      -1.930116      3.539222      0.870626
  H       0.258946      1.022086      3.568221
  H      -1.720134     -0.457859      3.787661
  C       0.421266      3.379610      2.238670
  N       0.321160      4.234780      3.463919
  H      -0.299914      5.020433      3.285666
  H       1.226528      4.631037      3.699913
  H       0.419154      3.999067      1.341468
  H       1.371745      2.850591      2.293242
  Cu     -0.529191      3.094049      4.866448
18
Coordinates from ORCA-job orca E -1967.196344116299
  C      -2.982282      1.809852      1.609079
  C      -1.886782      2.663213      1.508307
  C      -0.725806      2.406032      2.231229
  C      -0.670750      1.271068      3.056616
  C      -1.770887      0.423145      3.162308
  C      -2.929339      0.696714      2.441542
  H      -3.881158      2.016117      1.042297
  H      -3.782486      0.035501      2.520091
  H      -1.929950      3.536782      0.869159
  H       0.257673      1.022229      3.564166
  H      -1.719168     -0.457628      3.789345
  C       0.422290      3.381205      2.238708
  N       0.321203      4.235142      3.464642
  H      -0.299919      5.020848      3.286847
  H       1.226313      4.631313      3.701559
  H       0.420525      4.001378      1.342032
  H       1.372606      2.851931      2.293277
  Cu     -0.529517      3.092659      4.865475
18
Coordinates from ORCA-job orca E -1967.196354335676
  C      -2.982049      1.809183      1.609035
  C      -1.886394      2.662855      1.507368
  C      -0.725638      2.406880      2.230299
  C      -0.670889      1.271612      3.055163
  C      -1.771111      0.423451      3.162786
  C      -2.929946      0.696675      2.442164
  H      -3.880375      2.016229      1.041641
  H      -3.783882      0.036567      2.521184
  H      -1.932539      3.535508      0.867107
  H       0.257156      1.021665      3.562989
  H      -1.716815     -0.456307      3.790928
  C       0.422906      3.381574      2.238936
  N       0.321196      4.234746      3.465287
  H      -0.299895      5.020516      3.287693
  H       1.226184      4.630841      3.702795
  H       0.421458      4.002160      1.342520
  H       1.373006      2.851988      2.293574
  Cu     -0.529807      3.091356      4.865211
18
Coordinates from ORCA-job orca E -1967.196391701525
  C      -2.981862      1.808670      1.608755
  C      -1.886334      2.662483      1.505676
  C      -0.725338      2.407677      2.228888
  C      -0.670827      1.272201      3.053626
  C      -1.770945      0.424490      3.163594
  C      -2.930286      0.697158      2.443009
  H      -3.879524      2.016515      1.040598
  H      -3.785105      0.038269      2.522705
  H      -1.936425      3.533839      0.863947
  H       0.256646      1.020716      3.561850
  H      -1.713393     -0.453922      3.793254
  C       0.423574      3.381899      2.239132
  N       0.320991      4.233824      3.466212
  H      -0.300091      5.019678      3.288960
  H       1.225797      4.629858      3.704562
  H       0.422603      4.003177      1.343154
  H       1.373391      2.851896      2.293839
  Cu     -0.530306      3.089070      4.864918
18
Coordinates from ORCA-job orca E -1967.196361105378
  C      -2.981786      1.808693      1.608639
  C      -1.886286      2.662378      1.505142
  C      -0.725147      2.407620      2.228381
  C      -0.670649      1.272311      3.053450
  C      -1.770800      0.424981      3.163828
  C      -2.930220      0.697508      2.443318
  H      -3.879392      2.016609      1.040427
  H      -3.785177      0.038813      2.523306
  H      -1.936858      3.533494      0.863153
  H       0.256759      1.020566      3.561646
  H      -1.712906     -0.453162      3.793856
  C       0.423603      3.381969      2.239005
  N       0.320732      4.233384      3.466416
  H      -0.300425      5.019223      3.289339
  H       1.225452      4.629480      3.705008
  H       0.422742      4.003560      1.343250
  H       1.373427      2.851979      2.293703
  Cu     -0.530503      3.088092      4.864812
18
Coordinates from ORCA-job orca E -1967.196365951939
  C      -2.981686      1.808795      1.608527
  C      -1.886132      2.662229      1.504467
  C      -0.724828      2.407419      2.227595
  C      -0.670329      1.272555      3.053382
  C      -1.770642      0.425750      3.164215
  C      -2.930092      0.698012      2.443752
  H      -3.879305      2.016704      1.040337
  H      -3.785134      0.039466      2.524154
  H      -1.936849      3.533121      0.862224
  H       0.257130      1.020611      3.561377
  H      -1.712691     -0.452117      3.794673
  C       0.423576      3.382081      2.238664
  N       0.320261      4.232661      3.466635
  H      -0.301029      5.018463      3.289859
  H       1.224837      4.628871      3.705585
  H       0.422851      4.004197      1.343287
  H       1.373488      2.852205      2.293335
  Cu     -0.530861      3.086475      4.864611
18
Coordinates from ORCA-job orca E -1967.196360356176
  C      -2.981485      1.808830      1.608307
  C      -1.885694      2.661852      1.503252
  C      -0.724263      2.407152      2.226197
  C      -0.669783      1.273024      3.053108
  C      -1.770464      0.426892      3.164874
  C      -2.930056      0.698859      2.444634
  H      -3.879180      2.016687      1.040218
  H      -3.785317      0.040707      2.525941
  H      -1.936406      3.532374      0.860527
  H       0.257857      1.020846      3.560646
  H      -1.712606     -0.450450      3.796103
  C       0.423604      3.382386      2.238057
  N       0.319459      4.231454      3.467058
  H      -0.302108      5.017184      3.290885
  H       1.223769      4.627878      3.706685
  H       0.423014      4.005478      1.343384
  H       1.373727      2.852832      2.292619
  Cu     -0.531501      3.083513      4.864184
18
Coordinates from ORCA-job orca E -1967.196364283151
  C      -2.981390      1.808785      1.608179
  C      -1.885420      2.661616      1.502619
  C      -0.724020      2.407111      2.225507
  C      -0.669537      1.273357      3.052951
  C      -1.770427      0.427409      3.165285
  C      -2.930096      0.699260      2.445098
  H      -3.879167      2.016487      1.040161
  H      -3.785461      0.041326      2.526947
  H      -1.935877      3.531970      0.859633
  H       0.258299      1.021185      3.560161
  H      -1.712803     -0.449697      3.796860
  C       0.423641      3.382599      2.237723
  N       0.319111      4.230849      3.467295
  H      -0.302577      5.016573      3.291515
  H       1.223303      4.627321      3.707303
  H       0.422987      4.006226      1.343433
  H       1.373905      2.853273      2.292125
  Cu     -0.531905      3.081848      4.863885
18
Coordinates from ORCA-job orca E -1967.196367468845
  C      -2.981311      1.808664      1.608016
  C      -1.885198      2.661392      1.502043
  C      -0.723914      2.407230      2.224992
  C      -0.669406      1.273763      3.052829
  C      -1.770432      0.427820      3.165750
  C      -2.930153      0.699582      2.445495
  H      -3.879184      2.016049      1.040028
  H      -3.785577      0.041808      2.527844
  H      -1.935267      3.531593      0.858795
  H       0.258677      1.021715      3.559709
  H      -1.713135     -0.449107      3.797570
  C       0.423679      3.382845      2.237436
  N       0.318967      4.230343      3.467542
  H      -0.302753      5.016139      3.292210
  H       1.223107      4.626713      3.707912
  H       0.422762      4.006967      1.343494
  H       1.374083      2.853746      2.291506
  Cu     -0.532381      3.080237      4.863507
18
Coordinates from ORCA-job orca E -1967.196360297703
  C      -2.981291      1.808560      1.607920
  C      -1.885198      2.661338      1.501881
  C      -0.723998      2.407396      2.224970
  C      -0.669465      1.273956      3.052853
  C      -1.770445      0.427906      3.165942
  C      -2.930151      0.699616      2.445555
  H      -3.879187      2.015729      1.039893
  H      -3.785557      0.041830      2.528004
  H      -1.935148      3.531486      0.858544
  H       0.258696      1.022029      3.559676
  H      -1.713261     -0.448987      3.797799
  C       0.423666      3.382958      2.237384
  N       0.319127      4.230252      3.467644
  H      -0.302483      5.016173      3.292515
  H       1.223328      4.626404      3.708122
  H       0.422491      4.007212      1.343531
  H       1.374102      2.853900      2.291161
  Cu     -0.532662      3.079740      4.863286
18
Coordinates from ORCA-job orca E -1967.196366863040
  C      -2.981256      1.808352      1.607738
  C      -1.885278      2.661282      1.501677
  C      -0.724203      2.407713      2.225068
  C      -0.669632      1.274267      3.052998
  C      -1.770467      0.428039      3.166234
  C      -2.930107      0.699598      2.445577
  H      -3.879142      2.015168      1.039570
  H      -3.785453      0.041730      2.528060
  H      -1.935193      3.531318      0.858183
  H       0.258590      1.022529      3.559851
  H      -1.713356     -0.448798      3.798154
  C       0.423582      3.383167      2.237339
  N       0.319561      4.230178      3.467817
  H      -0.301748      5.016411      3.293047
  H       1.223946      4.625800      3.708431
  H       0.421892      4.007597      1.343603
  H       1.374043      2.854108      2.290486
  Cu     -0.533213      3.079039      4.862847
18
Coordinates from ORCA-job orca E -1967.196396899725
  C      -2.981215      1.808106      1.607531
  C      -1.885393      2.661220      1.501483
  C      -0.724422      2.408017      2.225204
  C      -0.669819      1.274607      3.053260
  C      -1.770487      0.428228      3.166520
  C      -2.930037      0.699531      2.445574
  H      -3.879052      2.014601      1.039167
  H      -3.785301      0.041546      2.528023
  H      -1.935404      3.531121      0.857819
  H       0.258405      1.023043      3.560230
  H      -1.713345     -0.448520      3.798550
  C       0.423428      3.383426      2.237277
  N       0.320106      4.230109      3.468012
  H      -0.300764      5.016770      3.293655
  H       1.224748      4.625023      3.708782
  H       0.421158      4.008058      1.343678
  H       1.373908      2.854330      2.289648
  Cu     -0.533950      3.078284      4.862263
18
Coordinates from ORCA-job orca E -1967.196362585449
  C      -2.981167      1.807819      1.607312
  C      -1.885511      2.661137      1.501309
  C      -0.724619      2.408287      2.225336
  C      -0.669999      1.274995      3.053644
  C      -1.770518      0.428497      3.166816
  C      -2.929961      0.699412      2.445575
  H      -3.878907      2.014065      1.038702
  H      -3.785132      0.041288      2.527936
  H      -1.935718      3.530864      0.857438
  H       0.258182      1.023564      3.560774
  H      -1.713239     -0.448117      3.799027
  C       0.423208      3.383755      2.237162
  N       0.320716      4.230010      3.468233
  H      -0.299573      5.017234      3.294345
  H       1.225685      4.624029      3.709208
  H       0.420322      4.008652      1.343752
  H       1.373713      2.854609      2.288622
  Cu     -0.534915      3.077397      4.861486
18
Coordinates from ORCA-job orca E -1967.196376879618
  C      -2.981167      1.807784      1.607333
  C      -1.885527      2.661125      1.501412
  C      -0.724616      2.408248      2.225435
  C      -0.670014      1.275001      3.053829
  C      -1.770539      0.428483      3.166771
  C      -2.929954      0.699305      2.445528
  H      -3.878857      2.014141      1.038686
  H      -3.785098      0.041139      2.527767
  H      -1.935837      3.530855      0.857560
  H       0.258111      1.023539      3.561051
  H      -1.713152     -0.448121      3.799003
  C       0.423138      3.383821      2.237142
  N       0.320834      4.230077      3.468219
  H      -0.299242      5.017457      3.294341
  H       1.225889      4.623847      3.709222
  H       0.420167      4.008718      1.343736
  H       1.373659      2.854665      2.288438
  Cu     -0.535231      3.077415      4.861206
18
Coordinates from ORCA-job orca E -1967.196396760768
  C      -2.981202      1.807587      1.607360
  C      -1.885681      2.661117      1.501761
  C      -0.724744      2.408303      2.225818
  C      -0.670154      1.275215      3.054496
  C      -1.770622      0.428479      3.166780
  C      -2.929896      0.698890      2.445334
  H      -3.878753      2.014075      1.038537
  H      -3.784858      0.040453      2.527135
  H      -1.936176      3.530845      0.857930
  H       0.257855      1.023757      3.561916
  H      -1.712976     -0.448121      3.799026
  C       0.422885      3.384093      2.237042
  N       0.321395      4.230260      3.468222
  H      -0.297776      5.018366      3.294466
  H       1.226862      4.622920      3.709410
  H       0.419501      4.009021      1.343671
  H       1.373435      2.854883      2.287654
  Cu     -0.536529      3.077358      4.860122
18
Coordinates from ORCA-job orca E -1967.196359377987
  C      -2.981186      1.807715      1.607406
  C      -1.885564      2.661108      1.501615
  C      -0.724616      2.408224      2.225571
  C      -0.670020      1.275098      3.054150
  C      -1.770567      0.428482      3.166767
  C      -2.929941      0.699125      2.445497
  H      -3.878811      2.014210      1.038702
  H      -3.785008      0.040849      2.527548
  H      -1.935929      3.530838      0.857769
  H       0.258065      1.023565      3.561387
  H      -1.713031     -0.448116      3.799013
  C       0.423039      3.383957      2.237058
  N       0.320998      4.230147      3.468206
  H      -0.298568      5.017929      3.294317
  H       1.226253      4.623338      3.709400
  H       0.419927      4.008882      1.343682
  H       1.373596      2.854817      2.288097
  Cu     -0.536072      3.077329      4.860494
18
Coordinates from ORCA-job orca E -1967.196356728043
  C      -2.981175      1.807847      1.607504
  C      -1.885459      2.661108      1.501572
  C      -0.724474      2.408115      2.225402
  C      -0.669879      1.274944      3.053898
  C      -1.770514      0.428435      3.166715
  C      -2.929974      0.699293      2.445631
  H      -3.878855      2.014424      1.038925
  H      -3.785133      0.041159      2.527862
  H      -1.935729      3.530869      0.857757
  H       0.258266      1.023295      3.560973
  H      -1.713045     -0.448178      3.798940
  C       0.423179      3.383843      2.237076
  N       0.320635      4.230111      3.468157
  H      -0.299165      5.017666      3.294068
  H       1.225717      4.623678      3.709408
  H       0.420307      4.008727      1.343670
  H       1.373753      2.854783      2.288505
  Cu     -0.535890      3.077380      4.860615
18
Coordinates from ORCA-job orca E -1967.196379265489
  C      -2.981170      1.807894      1.607572
  C      -1.885423      2.661113      1.501598
  C      -0.724414      2.408079      2.225371
  C      -0.669812      1.274888      3.053843
  C      -1.770486      0.428418      3.166717
  C      -2.929978      0.699342      2.445705
  H      -3.878863      2.014510      1.039025
  H      -3.785164      0.041244      2.527983
  H      -1.935668      3.530878      0.857786
  H       0.258358      1.023159      3.560827
  H      -1.713010     -0.448205      3.798923
  C       0.423225      3.383828      2.237078
  N       0.320522      4.230126      3.468140
  H      -0.299230      5.017694      3.293941
  H       1.225578      4.623687      3.709501
  H       0.420399      4.008693      1.343659
  H       1.373817      2.854811      2.288605
  Cu     -0.536114      3.077338      4.860404
