18
Properties=species:S:1:pos:R:3 energy=-1967.195781882409 pbc="F F F"
C       -2.98862000       1.81932900       1.60538700
C       -1.90013800       2.66633400       1.50438200
C       -0.72772700       2.40010600       2.23560500
C       -0.66711600       1.26630600       3.06794200
C       -1.76002400       0.42926300       3.16397200
C       -2.91924700       0.70185200       2.43298100
H       -3.89069400       2.02116100       1.04223700
H       -3.76822400       0.03499500       2.51073900
H       -1.93914800       3.54217800       0.86835200
H        0.26081200       1.02001800       3.57733100
H       -1.71451700      -0.45391000       3.78841000
C        0.42031200       3.37526800       2.23956800
N        0.32094300       4.23278100       3.46330000
H       -0.29964000       5.01848000       3.28360800
H        1.22660800       4.62893400       3.69835700
H        0.41837900       3.99304900       1.34121600
H        1.37053500       2.84585300       2.29493200
Cu      -0.52992900       3.09550200       4.86835900
18
Properties=species:S:1:pos:R:3 energy=-1967.196289789754 pbc="F F F"
C       -2.98376700       1.81221200       1.60753200
C       -1.89043500       2.66440600       1.50802200
C       -0.72627100       2.40392200       2.23294200
C       -0.66963300       1.26945000       3.06053600
C       -1.76810900       0.42449100       3.16223800
C       -2.92669300       0.69857000       2.43975400
H       -3.88383300       2.01653300       1.04208000
H       -3.77813900       0.03489900       2.51774100
H       -1.93011600       3.53922200       0.87062600
H        0.25894600       1.02208600       3.56822100
H       -1.72013400      -0.45785900       3.78766100
C        0.42126600       3.37961000       2.23867000
N        0.32116000       4.23478000       3.46391900
H       -0.29991400       5.02043300       3.28566600
H        1.22652800       4.63103700       3.69991300
H        0.41915400       3.99906700       1.34146800
H        1.37174500       2.85059100       2.29324200
Cu      -0.52919100       3.09404900       4.86644800
18
Properties=species:S:1:pos:R:3 energy=-1967.196344116299 pbc="F F F"
C       -2.98228200       1.80985200       1.60907900
C       -1.88678200       2.66321300       1.50830700
C       -0.72580600       2.40603200       2.23122900
C       -0.67075000       1.27106800       3.05661600
C       -1.77088700       0.42314500       3.16230800
C       -2.92933900       0.69671400       2.44154200
H       -3.88115800       2.01611700       1.04229700
H       -3.78248600       0.03550100       2.52009100
H       -1.92995000       3.53678200       0.86915900
H        0.25767300       1.02222900       3.56416600
H       -1.71916800      -0.45762800       3.78934500
C        0.42229000       3.38120500       2.23870800
N        0.32120300       4.23514200       3.46464200
H       -0.29991900       5.02084800       3.28684700
H        1.22631300       4.63131300       3.70155900
H        0.42052500       4.00137800       1.34203200
H        1.37260600       2.85193100       2.29327700
Cu      -0.52951700       3.09265900       4.86547500
18
Properties=species:S:1:pos:R:3 energy=-1967.196354335676 pbc="F F F"
C       -2.98204900       1.80918300       1.60903500
C       -1.88639400       2.66285500       1.50736800
C       -0.72563800       2.40688000       2.23029900
C       -0.67088900       1.27161200       3.05516300
C       -1.77111100       0.42345100       3.16278600
C       -2.92994600       0.69667500       2.44216400
H       -3.88037500       2.01622900       1.04164100
H       -3.78388200       0.03656700       2.52118400
H       -1.93253900       3.53550800       0.86710700
H        0.25715600       1.02166500       3.56298900
H       -1.71681500      -0.45630700       3.79092800
C        0.42290600       3.38157400       2.23893600
N        0.32119600       4.23474600       3.46528700
H       -0.29989500       5.02051600       3.28769300
H        1.22618400       4.63084100       3.70279500
H        0.42145800       4.00216000       1.34252000
H        1.37300600       2.85198800       2.29357400
Cu      -0.52980700       3.09135600       4.86521100
18
Properties=species:S:1:pos:R:3 energy=-1967.196391701525 pbc="F F F"
C       -2.98186200       1.80867000       1.60875500
C       -1.88633400       2.66248300       1.50567600
C       -0.72533800       2.40767700       2.22888800
C       -0.67082700       1.27220100       3.05362600
C       -1.77094500       0.42449000       3.16359400
C       -2.93028600       0.69715800       2.44300900
H       -3.87952400       2.01651500       1.04059800
H       -3.78510500       0.03826900       2.52270500
H       -1.93642500       3.53383900       0.86394700
H        0.25664600       1.02071600       3.56185000
H       -1.71339300      -0.45392200       3.79325400
C        0.42357400       3.38189900       2.23913200
N        0.32099100       4.23382400       3.46621200
H       -0.30009100       5.01967800       3.28896000
H        1.22579700       4.62985800       3.70456200
H        0.42260300       4.00317700       1.34315400
H        1.37339100       2.85189600       2.29383900
Cu      -0.53030600       3.08907000       4.86491800
18
Properties=species:S:1:pos:R:3 energy=-1967.196361105378 pbc="F F F"
C       -2.98178600       1.80869300       1.60863900
C       -1.88628600       2.66237800       1.50514200
C       -0.72514700       2.40762000       2.22838100
C       -0.67064900       1.27231100       3.05345000
C       -1.77080000       0.42498100       3.16382800
C       -2.93022000       0.69750800       2.44331800
H       -3.87939200       2.01660900       1.04042700
H       -3.78517700       0.03881300       2.52330600
H       -1.93685800       3.53349400       0.86315300
H        0.25675900       1.02056600       3.56164600
H       -1.71290600      -0.45316200       3.79385600
C        0.42360300       3.38196900       2.23900500
N        0.32073200       4.23338400       3.46641600
H       -0.30042500       5.01922300       3.28933900
H        1.22545200       4.62948000       3.70500800
H        0.42274200       4.00356000       1.34325000
H        1.37342700       2.85197900       2.29370300
Cu      -0.53050300       3.08809200       4.86481200
18
Properties=species:S:1:pos:R:3 energy=-1967.196365951939 pbc="F F F"
C       -2.98168600       1.80879500       1.60852700
C       -1.88613200       2.66222900       1.50446700
C       -0.72482800       2.40741900       2.22759500
C       -0.67032900       1.27255500       3.05338200
C       -1.77064200       0.42575000       3.16421500
C       -2.93009200       0.69801200       2.44375200
H       -3.87930500       2.01670400       1.04033700
H       -3.78513400       0.03946600       2.52415400
H       -1.93684900       3.53312100       0.86222400
H        0.25713000       1.02061100       3.56137700
H       -1.71269100      -0.45211700       3.79467300
C        0.42357600       3.38208100       2.23866400
N        0.32026100       4.23266100       3.46663500
H       -0.30102900       5.01846300       3.28985900
H        1.22483700       4.62887100       3.70558500
H        0.42285100       4.00419700       1.34328700
H        1.37348800       2.85220500       2.29333500
Cu      -0.53086100       3.08647500       4.86461100
18
Properties=species:S:1:pos:R:3 energy=-1967.196360356176 pbc="F F F"
C       -2.98148500       1.80883000       1.60830700
C       -1.88569400       2.66185200       1.50325200
C       -0.72426300       2.40715200       2.22619700
C       -0.66978300       1.27302400       3.05310800
C       -1.77046400       0.42689200       3.16487400
C       -2.93005600       0.69885900       2.44463400
H       -3.87918000       2.01668700       1.04021800
H       -3.78531700       0.04070700       2.52594100
H       -1.93640600       3.53237400       0.86052700
H        0.25785700       1.02084600       3.56064600
H       -1.71260600      -0.45045000       3.79610300
C        0.42360400       3.38238600       2.23805700
N        0.31945900       4.23145400       3.46705800
H       -0.30210800       5.01718400       3.29088500
H        1.22376900       4.62787800       3.70668500
H        0.42301400       4.00547800       1.34338400
H        1.37372700       2.85283200       2.29261900
Cu      -0.53150100       3.08351300       4.86418400
18
Properties=species:S:1:pos:R:3 energy=-1967.196364283151 pbc="F F F"
C       -2.98139000       1.80878500       1.60817900
C       -1.88542000       2.66161600       1.50261900
C       -0.72402000       2.40711100       2.22550700
C       -0.66953700       1.27335700       3.05295100
C       -1.77042700       0.42740900       3.16528500
C       -2.93009600       0.69926000       2.44509800
H       -3.87916700       2.01648700       1.04016100
H       -3.78546100       0.04132600       2.52694700
H       -1.93587700       3.53197000       0.85963300
H        0.25829900       1.02118500       3.56016100
H       -1.71280300      -0.44969700       3.79686000
C        0.42364100       3.38259900       2.23772300
N        0.31911100       4.23084900       3.46729500
H       -0.30257700       5.01657300       3.29151500
H        1.22330300       4.62732100       3.70730300
H        0.42298700       4.00622600       1.34343300
H        1.37390500       2.85327300       2.29212500
Cu      -0.53190500       3.08184800       4.86388500
18
Properties=species:S:1:pos:R:3 energy=-1967.196367468845 pbc="F F F"
C       -2.98131100       1.80866400       1.60801600
C       -1.88519800       2.66139200       1.50204300
C       -0.72391400       2.40723000       2.22499200
C       -0.66940600       1.27376300       3.05282900
C       -1.77043200       0.42782000       3.16575000
C       -2.93015300       0.69958200       2.44549500
H       -3.87918400       2.01604900       1.04002800
H       -3.78557700       0.04180800       2.52784400
H       -1.93526700       3.53159300       0.85879500
H        0.25867700       1.02171500       3.55970900
H       -1.71313500      -0.44910700       3.79757000
C        0.42367900       3.38284500       2.23743600
N        0.31896700       4.23034300       3.46754200
H       -0.30275300       5.01613900       3.29221000
H        1.22310700       4.62671300       3.70791200
H        0.42276200       4.00696700       1.34349400
H        1.37408300       2.85374600       2.29150600
Cu      -0.53238100       3.08023700       4.86350700
18
Properties=species:S:1:pos:R:3 energy=-1967.196360297703 pbc="F F F"
C       -2.98129100       1.80856000       1.60792000
C       -1.88519800       2.66133800       1.50188100
C       -0.72399800       2.40739600       2.22497000
C       -0.66946500       1.27395600       3.05285300
C       -1.77044500       0.42790600       3.16594200
C       -2.93015100       0.69961600       2.44555500
H       -3.87918700       2.01572900       1.03989300
H       -3.78555700       0.04183000       2.52800400
H       -1.93514800       3.53148600       0.85854400
H        0.25869600       1.02202900       3.55967600
H       -1.71326100      -0.44898700       3.79779900
C        0.42366600       3.38295800       2.23738400
N        0.31912700       4.23025200       3.46764400
H       -0.30248300       5.01617300       3.29251500
H        1.22332800       4.62640400       3.70812200
H        0.42249100       4.00721200       1.34353100
H        1.37410200       2.85390000       2.29116100
Cu      -0.53266200       3.07974000       4.86328600
18
Properties=species:S:1:pos:R:3 energy=-1967.19636686304 pbc="F F F"
C       -2.98125600       1.80835200       1.60773800
C       -1.88527800       2.66128200       1.50167700
C       -0.72420300       2.40771300       2.22506800
C       -0.66963200       1.27426700       3.05299800
C       -1.77046700       0.42803900       3.16623400
C       -2.93010700       0.69959800       2.44557700
H       -3.87914200       2.01516800       1.03957000
H       -3.78545300       0.04173000       2.52806000
H       -1.93519300       3.53131800       0.85818300
H        0.25859000       1.02252900       3.55985100
H       -1.71335600      -0.44879800       3.79815400
C        0.42358200       3.38316700       2.23733900
N        0.31956100       4.23017800       3.46781700
H       -0.30174800       5.01641100       3.29304700
H        1.22394600       4.62580000       3.70843100
H        0.42189200       4.00759700       1.34360300
H        1.37404300       2.85410800       2.29048600
Cu      -0.53321300       3.07903900       4.86284700
18
Properties=species:S:1:pos:R:3 energy=-1967.196396899725 pbc="F F F"
C       -2.98121500       1.80810600       1.60753100
C       -1.88539300       2.66122000       1.50148300
C       -0.72442200       2.40801700       2.22520400
C       -0.66981900       1.27460700       3.05326000
C       -1.77048700       0.42822800       3.16652000
C       -2.93003700       0.69953100       2.44557400
H       -3.87905200       2.01460100       1.03916700
H       -3.78530100       0.04154600       2.52802300
H       -1.93540400       3.53112100       0.85781900
H        0.25840500       1.02304300       3.56023000
H       -1.71334500      -0.44852000       3.79855000
C        0.42342800       3.38342600       2.23727700
N        0.32010600       4.23010900       3.46801200
H       -0.30076400       5.01677000       3.29365500
H        1.22474800       4.62502300       3.70878200
H        0.42115800       4.00805800       1.34367800
H        1.37390800       2.85433000       2.28964800
Cu      -0.53395000       3.07828400       4.86226300
18
Properties=species:S:1:pos:R:3 energy=-1967.196362585449 pbc="F F F"
C       -2.98116700       1.80781900       1.60731200
C       -1.88551100       2.66113700       1.50130900
C       -0.72461900       2.40828700       2.22533600
C       -0.66999900       1.27499500       3.05364400
C       -1.77051800       0.42849700       3.16681600
C       -2.92996100       0.69941200       2.44557500
H       -3.87890700       2.01406500       1.03870200
H       -3.78513200       0.04128800       2.52793600
H       -1.93571800       3.53086400       0.85743800
H        0.25818200       1.02356400       3.56077400
H       -1.71323900      -0.44811700       3.79902700
C        0.42320800       3.38375500       2.23716200
N        0.32071600       4.23001000       3.46823300
H       -0.29957300       5.01723400       3.29434500
H        1.22568500       4.62402900       3.70920800
H        0.42032200       4.00865200       1.34375200
H        1.37371300       2.85460900       2.28862200
Cu      -0.53491500       3.07739700       4.86148600
18
Properties=species:S:1:pos:R:3 energy=-1967.196376879618 pbc="F F F"
C       -2.98116700       1.80778400       1.60733300
C       -1.88552700       2.66112500       1.50141200
C       -0.72461600       2.40824800       2.22543500
C       -0.67001400       1.27500100       3.05382900
C       -1.77053900       0.42848300       3.16677100
C       -2.92995400       0.69930500       2.44552800
H       -3.87885700       2.01414100       1.03868600
H       -3.78509800       0.04113900       2.52776700
H       -1.93583700       3.53085500       0.85756000
H        0.25811100       1.02353900       3.56105100
H       -1.71315200      -0.44812100       3.79900300
C        0.42313800       3.38382100       2.23714200
N        0.32083400       4.23007700       3.46821900
H       -0.29924200       5.01745700       3.29434100
H        1.22588900       4.62384700       3.70922200
H        0.42016700       4.00871800       1.34373600
H        1.37365900       2.85466500       2.28843800
Cu      -0.53523100       3.07741500       4.86120600
18
Properties=species:S:1:pos:R:3 energy=-1967.196396760768 pbc="F F F"
C       -2.98120200       1.80758700       1.60736000
C       -1.88568100       2.66111700       1.50176100
C       -0.72474400       2.40830300       2.22581800
C       -0.67015400       1.27521500       3.05449600
C       -1.77062200       0.42847900       3.16678000
C       -2.92989600       0.69889000       2.44533400
H       -3.87875300       2.01407500       1.03853700
H       -3.78485800       0.04045300       2.52713500
H       -1.93617600       3.53084500       0.85793000
H        0.25785500       1.02375700       3.56191600
H       -1.71297600      -0.44812100       3.79902600
C        0.42288500       3.38409300       2.23704200
N        0.32139500       4.23026000       3.46822200
H       -0.29777600       5.01836600       3.29446600
H        1.22686200       4.62292000       3.70941000
H        0.41950100       4.00902100       1.34367100
H        1.37343500       2.85488300       2.28765400
Cu      -0.53652900       3.07735800       4.86012200
18
Properties=species:S:1:pos:R:3 energy=-1967.196359377987 pbc="F F F"
C       -2.98118600       1.80771500       1.60740600
C       -1.88556400       2.66110800       1.50161500
C       -0.72461600       2.40822400       2.22557100
C       -0.67002000       1.27509800       3.05415000
C       -1.77056700       0.42848200       3.16676700
C       -2.92994100       0.69912500       2.44549700
H       -3.87881100       2.01421000       1.03870200
H       -3.78500800       0.04084900       2.52754800
H       -1.93592900       3.53083800       0.85776900
H        0.25806500       1.02356500       3.56138700
H       -1.71303100      -0.44811600       3.79901300
C        0.42303900       3.38395700       2.23705800
N        0.32099800       4.23014700       3.46820600
H       -0.29856800       5.01792900       3.29431700
H        1.22625300       4.62333800       3.70940000
H        0.41992700       4.00888200       1.34368200
H        1.37359600       2.85481700       2.28809700
Cu      -0.53607200       3.07732900       4.86049400
18
Properties=species:S:1:pos:R:3 energy=-1967.196356728043 pbc="F F F"
C       -2.98117500       1.80784700       1.60750400
C       -1.88545900       2.66110800       1.50157200
C       -0.72447400       2.40811500       2.22540200
C       -0.66987900       1.27494400       3.05389800
C       -1.77051400       0.42843500       3.16671500
C       -2.92997400       0.69929300       2.44563100
H       -3.87885500       2.01442400       1.03892500
H       -3.78513300       0.04115900       2.52786200
H       -1.93572900       3.53086900       0.85775700
H        0.25826600       1.02329500       3.56097300
H       -1.71304500      -0.44817800       3.79894000
C        0.42317900       3.38384300       2.23707600
N        0.32063500       4.23011100       3.46815700
H       -0.29916500       5.01766600       3.29406800
H        1.22571700       4.62367800       3.70940800
H        0.42030700       4.00872700       1.34367000
H        1.37375300       2.85478300       2.28850500
Cu      -0.53589000       3.07738000       4.86061500
18
Properties=species:S:1:pos:R:3 energy=-1967.196379265489 pbc="F F F"
C       -2.98117000       1.80789400       1.60757200
C       -1.88542300       2.66111300       1.50159800
C       -0.72441400       2.40807900       2.22537100
C       -0.66981200       1.27488800       3.05384300
C       -1.77048600       0.42841800       3.16671700
C       -2.92997800       0.69934200       2.44570500
H       -3.87886300       2.01451000       1.03902500
H       -3.78516400       0.04124400       2.52798300
H       -1.93566800       3.53087800       0.85778600
H        0.25835800       1.02315900       3.56082700
H       -1.71301000      -0.44820500       3.79892300
C        0.42322500       3.38382800       2.23707800
N        0.32052200       4.23012600       3.46814000
H       -0.29923000       5.01769400       3.29394100
H        1.22557800       4.62368700       3.70950100
H        0.42039900       4.00869300       1.34365900
H        1.37381700       2.85481100       2.28860500
Cu      -0.53611400       3.07733800       4.86040400
