18
Coordinates from ORCA-job orca E -1967.173958633608
  C          -3.00749708585999      2.18292576690962      2.01596916855568
  C          -1.79985213564294      2.71898659131915      1.58167937024457
  C          -0.60182171404389      2.03912745653132      1.80582617614288
  C          -0.63203385145292      0.81122427568016      2.46923920093445
  C          -1.83706321469744      0.27510833112600      2.90583779391552
  C          -3.02749364291028      0.96098986928461      2.68024270678544
  H          -3.93138814338063      2.71621058770965      1.83152653069432
  H          -3.96719958213604      0.54041478185020      3.01480973327603
  H          -1.78660083734748      3.66924747461153      1.06059930481399
  H           0.29269251752735      0.26995026051605      2.63342106890830
  H          -1.84952813865200     -0.68078711745652      3.41389735345467
  C           0.69733000781571      2.65038291355858      1.37844033012673
  N           1.38728779508463      3.38015016728051      2.47944804567920
  H           1.52715257299037      2.74439830059525      3.26240538787319
  H           0.76428951551961      4.10790579807100      2.82891873139230
  H           0.57148154716141      3.33365489741011      0.54330366122788
  H           1.52118302124249      1.72202217998755      0.97540490482666
  Cu          3.10152136878248      4.19254746501404      2.03207053114697
