18
Coordinates from ORCA-job orca E -1967.118810388344
  C          -2.96379245533730      2.20604027330600      2.05767097019847
  C          -1.74631801674957      2.71518728325661      1.62130750097694
  C          -0.56862254180266      1.99012828054537      1.80489609567133
  C          -0.62947918550400      0.74276500854704      2.42748483030780
  C          -1.84642976859442      0.22994022212448      2.86341589479141
  C          -3.01525225920860      0.96219904055421      2.68058712101811
  H          -3.87233122891514      2.77499090035989      1.90627306261411
  H          -3.96368382746020      0.56274927231214      3.01652487914496
  H          -1.70975229296435      3.67984832374632      1.12787122533533
  H           0.27910236671405      0.16798798474609      2.56804642281745
  H          -1.88318049542691     -0.74094927906904      3.34102535992340
  C           0.76167575267506      2.54970882626593      1.37264706027927
  N           1.36699780663340      3.42036290785450      2.43981574395424
  H           1.45461107318855      2.87500198140137      3.29575836875835
  H           0.71918170111790      4.17259050213468      2.66223292531055
  H           0.63598010304930      3.17934986249356      0.49206527775244
  H           1.30143242192254      1.94769158087398      1.20874778075051
  Cu          3.10232084666282      4.19886702854555      2.02666948039391
