18
Coordinates from ORCA-job orca E -1967.181033063795
  C          -2.97153356635683      2.20554796095158      2.05336214106920
  C          -1.75511665146611      2.71761795591002      1.61698041692569
  C          -0.57464024760546      1.99769001216563      1.80491053089175
  C          -0.63215578243099      0.75271478698402      2.43264011280779
  C          -1.84760965203708      0.23749960852347      2.86919785519900
  C          -3.01917614657753      0.96440437608313      2.68148198935134
  H          -3.88189710165652      2.77052195497023      1.89807094734104
  H          -3.96655688085377      0.56253466796885      3.01748435497124
  H          -1.72141927945734      3.68072427701710      1.12038149018832
  H           0.27845840540580      0.18177810658499      2.57500900381918
  H          -1.88140362407514     -0.73173043633886      3.35037702730395
  C           0.75007619949700      2.56782860367767      1.37305367141510
  N           1.36621908224495      3.41772410833776      2.44771739205615
  H           1.47244017836386      2.85516870343474      3.29015928304641
  H           0.71499820381569      4.15925817717226      2.69700014702913
  H           0.62432986395136      3.20593726952694      0.49894821585246
  H           1.37959594276016      1.86745486260775      1.16232513408824
  Cu          3.08785105647844      4.22178500442144      2.02394028664267
