18
Coordinates from ORCA-job orca E -1967.192884956548
  C          -2.98183262144483      2.20084495820229      2.04458401892973
  C          -1.76774465763775      2.71902014862974      1.60827816125020
  C          -0.58250593610695      2.00904079943425      1.80455019905794
  C          -0.63280768889172      0.76818843174309      2.44125110274159
  C          -1.84541487778417      0.24771734796477      2.87856108282488
  C          -3.02205190533369      0.96440385340780      2.68187117272639
  H          -3.89581335058946      2.75793281365653      1.88226280615849
  H          -3.96738142379346      0.55775411482101      3.01787695092237
  H          -1.73952024935626      3.67907904699659      1.10561626459096
  H           0.28156842258833      0.20461903574858      2.58821091088906
  H          -1.87348775021786     -0.71833878100706      3.36642783708910
  C           0.73491887327126      2.59128437183599      1.37338644474181
  N           1.36981818321793      3.40960506895699      2.45689669509790
  H           1.48808658115110      2.82640036297064      3.28337431840260
  H           0.72356889408870      4.14614849039768      2.73468515599482
  H           0.60886271303811      3.24175714567245      0.50966097728579
  H           1.43732701576645      1.80767576576009      1.10917940616772
  Cu          3.08686977803474      4.22132702480732      2.02636649512732
