18
Coordinates from ORCA-job orca E -1967.144035360475
  C          -3.06807904003562      2.09330737117321      1.88511140374491
  C          -1.87755800633803      2.69092990669087      1.48319613779609
  C          -0.64932541030366      2.13310711343725      1.83932253094088
  C          -0.63134369666933      0.96330801563878      2.60399734110263
  C          -1.81799626883310      0.36974508478391      3.01014683139663
  C          -3.04046079561212      0.93394256994000      2.65107484331291
  H          -4.01455708341423      2.53464738356265      1.60007887119378
  H          -3.96556424858221      0.46672727095671      2.96351637241028
  H          -1.90095695419339      3.59639096635398      0.88864753561790
  H           0.31469407270905      0.50414082104944      2.86739286256672
  H          -1.79204705113520     -0.53875374851704      3.59822408070835
  C           0.61305302226387      2.80242125817932      1.41768057950015
  N           1.49413954506525      3.23268512227075      2.52371692352070
  H           1.70065096917450      2.43803278245588      3.12484654325747
  H           0.98042829447978      3.89208652720119      3.10946355027737
  H           0.44439897270194      3.63339663883237      0.74219126075363
  H           1.44216248128040      1.84343789616273      0.60653730370141
  Cu          3.19082119744249      4.04490701982692      1.99789502819707
