18
Coordinates from ORCA-job orca E -1967.188221858547
  C          -2.99288851336725      2.19384477135157      2.03331694706581
  C          -1.78155219184886      2.71957245812787      1.59767775454390
  C          -0.59087166608608      2.02186912575798      1.80472718537631
  C          -0.63262830716505      0.78603228161282      2.45211997317415
  C          -1.84195596341163      0.25898095269641      2.88956778444483
  C          -3.02448073243784      0.96309060553645      2.68145161197267
  H          -3.91113165299611      2.74115613871025      1.86214673944979
  H          -3.96742781774689      0.55054892696623      3.01694174514527
  H          -1.75973536079478      3.67579557515036      1.08760859308513
  H           0.28609638287409      0.23147131453427      2.60569044418659
  H          -1.86331836354925     -0.70310418374293      3.38553970584334
  C           0.71924227973492      2.61595316374187      1.37448832649774
  N           1.37642107733443      3.39838748134383      2.46639799147743
  H           1.50403065236256      2.79344403095612      3.27555091579459
  H           0.73924245727128      4.13193648486899      2.77354146585631
  H           0.59238793041181      3.28073506651013      0.52307900412232
  H           1.47847735814420      1.76450001293253      1.05384112266736
  Cu          3.09255243127089      4.21024579294403      2.02935268929518
