18
Coordinates from ORCA-job orca E -1967.122125875253
  C          -2.97858865102210      1.87160772078170      1.65854621594921
  C          -1.83994554399561      2.62735079112094      1.41302986661987
  C          -0.62626090778555      2.28455083448156      2.01238657770962
  C          -0.56265552557718      1.16716424020312      2.84897411586917
  C          -1.70167925229609      0.41352379527134      3.09131192001888
  C          -2.91196155115100      0.76431639344004      2.49791326587699
  H          -3.91710538985793      2.14823757965258      1.19626617483858
  H          -3.79858274358499      0.17337105479282      2.68756295702254
  H          -1.89011483659922      3.48974819012221      0.75973455307727
  H           0.37589561975076      0.86735247517899      3.29985105797352
  H          -1.64508829735230     -0.45176907506680      3.73867712817169
  C           0.54904274755136      3.13880962059737      1.75341786756813
  N           1.49400671977597      3.32821102768838      2.78797518418288
  H           1.32844011872743      2.83455874652074      3.65400776521053
  H           1.82331385319059      4.27484530683686      2.91806147955748
  H           0.34082647321010      4.04078150387783      1.19537715856528
  H           1.07061051995110      2.37531879410696      0.24999716003143
  Cu          2.31230664706499      2.28648100039257      1.14994955175608
