18
Coordinates from ORCA-job orca E -1967.150060658124
  C          -3.06326956246147      2.10196584182339      1.89631323079124
  C          -1.87100463856950      2.69318377227847      1.48979183789880
  C          -0.64467406970169      2.12389920364023      1.83333662227893
  C          -0.63026688564407      0.94946258500129      2.59063066998629
  C          -1.81849387978812      0.36208075077898      3.00176812462084
  C          -3.03908580423596      0.93753741771591      2.65474918208850
  H          -4.00841610564373      2.55185744273267      1.62031522742468
  H          -3.96550013063662      0.47518213661456      2.97055365376597
  H          -1.89178551862293      3.60230397224834      0.90067174277085
  H           0.31468866474355      0.48295321491811      2.84521598053883
  H          -1.79522761556465     -0.55014844869623      3.58418939394735
  C           0.62348147332004      2.78475956699971      1.40738462612118
  N           1.48571621183261      3.24349007980857      2.52009835686307
  H           1.68928104103727      2.46083324806347      3.13791136204514
  H           0.95813280306079      3.90827288010039      3.08658806832915
  H           0.45474549167580      3.60736009301644      0.72097149834663
  H           1.44127251554959      1.83746258144946      0.64576054672473
  Cu          3.18286600964950      4.06200366150513      2.00678987545666
