18
Coordinates from ORCA-job orca E -1967.153098932054
  C          -3.04757643730036      2.13316757741205      1.93950813741889
  C          -1.84986552856845      2.70455111200569      1.52085078631661
  C          -0.63153504021441      2.09475690201302      1.82115890275397
  C          -0.63027290602900      0.90042394201908      2.54621365182229
  C          -1.82396979650623      0.33171072995765      2.96829239863481
  C          -3.03635864093910      0.94775289395474      2.66529274865011
  H          -3.98688638211095      2.61334670005954      1.69657889799674
  H          -3.96735196598894      0.50006677052138      2.98873096282281
  H          -1.86037737901252      3.62850987514063      0.95489899319602
  H           0.30991374756187      0.40743786933551      2.76625069762273
  H          -1.81177129767138     -0.59710302132815      3.52423436505377
  C           0.64524913149409      2.74104634104228      1.39561655244110
  N           1.45073102124842      3.29331353203095      2.51090090910073
  H           1.64108214379799      2.55715645213400      3.18769234576111
  H           0.88490382059897      3.98137928258286      3.00837186986384
  H           0.49319104774499      3.51336483367846      0.64916964759449
  H           1.49368332813192      1.76543187711600      0.75035627443235
  Cu          3.14967113376350      4.11814633032322      2.01892185851649
