18
Coordinates from ORCA-job orca E -1967.125162036420
  C          -2.95756220313418      1.84238985997923      1.61623692365689
  C          -1.82195253279164      2.60880154676792      1.40000167642426
  C          -0.62742772985410      2.29705469229435      2.05541768456521
  C          -0.57939532722705      1.19589315860611      2.91548729663978
  C          -1.71657073106996      0.43093452718240      3.12753501149973
  C          -2.90737118262995      0.75283963789186      2.48072999246889
  H          -3.88117276901921      2.09542056732515      1.11251402189839
  H          -3.79271672785174      0.15360646850620      2.64895501000870
  H          -1.85665412315089      3.45586142397904      0.72604126933714
  H           0.34220678046947      0.91800372384718      3.41239976725424
  H          -1.67444247895444     -0.41948313846699      3.79519594221613
  C           0.52973803326202      3.17391722167335      1.83122971977296
  N           1.50633750250767      3.30953118562060      2.81590796552748
  H           1.42896277017692      2.75623328797083      3.65768415510374
  H           1.91817423214345      4.22355421492206      2.94529850930985
  H           0.33273577537365      4.08197569387181      1.27936136397668
  H           1.03230714211782      2.40444806737094      0.04927396263667
  Cu          2.14726356963241      2.35347786065732      1.04376972770257
