18
Coordinates from ORCA-job orca E -1967.165118269814
  C          -3.03220712716621      2.15260658657156      1.96786471970759
  C          -1.83097423961496      2.70938732247973      1.54022236579854
  C          -0.61965886501115      2.07236892676648      1.81041302116426
  C          -0.62886485533306      0.86625822369812      2.51452544008294
  C          -1.82633388230835      0.31132895940681      2.94597886592135
  C          -3.03142580359452      0.95428531812596      2.67296758316212
  H          -3.96651217875655      2.65307835183717      1.74752518029749
  H          -3.96541396437690      0.51797090510605      3.00331082170052
  H          -1.83336364796294      3.64260486261492      0.98937283233256
  H           0.30645101595996      0.35540025800287      2.71353999254625
  H          -1.82234195261806     -0.62679904781944      3.48624537061623
  C           0.66760346686826      2.70254040865795      1.38196055210823
  N           1.42628233560570      3.32258628677170      2.50033815698463
  H           1.59522773050554      2.62227876177657      3.21975014175523
  H           0.83631080926611      4.02788946555642      2.94126194070308
  H           0.52175374179143      3.44742918688801      0.60583573346142
  H           1.49317708533998      1.76012104533196      0.84020512752709
  Cu          3.13275033140615      4.14312417822603      2.03172215412929
