18
Coordinates from ORCA-job orca E -1967.122928663887
  C          -2.96471222166210      1.85233086164468      1.63010526588878
  C          -1.82726734286157      2.61349028158143      1.40148996324815
  C          -0.62557473836663      2.29060738309542      2.03656929285395
  C          -0.57228859612482      1.18540219041394      2.89011913917328
  C          -1.71109389710757      0.42606943506754      3.11552883369630
  C          -2.90919703782804      0.75804018242559      2.48790321658057
  H          -3.89384997229222      2.11385366094019      1.14097821096537
  H          -3.79559892891486      0.16308856941883      2.66556568127637
  H          -1.86734050342679      3.46484135820093      0.73316488250956
  H           0.35558676556795      0.89942962372166      3.37066666069125
  H          -1.66395345723378     -0.42817529414887      3.77804284966409
  C           0.54047668408883      3.15781850064758      1.79710476171907
  N           1.50326524326810      3.31369134154546      2.80462710081928
  H           1.39246380995433      2.77990541172959      3.65510494910560
  H           1.88039246649451      4.24153468159821      2.93948350111403
  H           0.33552393981140      4.06703877265594      1.25014047222881
  H           1.03230555436963      2.40525080045169      0.14030931362753
  Cu          2.21332223226394      2.33024223900948      1.07613590483725
