18
Coordinates from ORCA-job orca E -1967.192158101972
  C          -2.98681693030191      2.19749458143939      2.03905180974752
  C          -1.77394209125464      2.71904120708319      1.60304014821739
  C          -0.58617138231158      2.01473779492501      1.80448661158084
  C          -0.63259665987323      0.77632524578615      2.44639101669094
  C          -1.84372839693944      0.25294943213594      2.88383656114789
  C          -3.02308618031752      0.96381947088046      2.68164933457199
  H          -3.90276621440175      2.75006051658990      1.87245897960960
  H          -3.96733928610607      0.55455069496187      3.01749146108217
  H          -1.74862700083132      3.67722904960166      1.09675302933581
  H           0.28378959503244      0.21691308255776      2.59658036885347
  H          -1.86873183612093     -0.71116158131782      3.37569674706802
  C           0.72803505261323      2.60216343650114      1.37348156780778
  N           1.37330438028001      3.40385865553194      2.46121377314051
  H           1.49622904788403      2.81033945044803      3.27956808337105
  H           0.73114415235493      4.13890226877225      2.75299993179849
  H           0.60133728218956      3.25966623370243      0.51569372979377
  H           1.45271763922329      1.79147113778677      1.08497135190226
  Cu          3.08970882888135      4.21609932261269      2.02767549427921
