18
Coordinates from ORCA-job orca E -1967.124981579182
  C          -3.00116514445023      1.89636353735893      1.69941742369196
  C          -1.86164492351867      2.64329401643692      1.42737000333173
  C          -0.63255900327210      2.27479118211547      1.97659218852939
  C          -0.55459962098093      1.14165170933717      2.79062403263800
  C          -1.69381091350226      0.39799834926266      3.06093749153107
  C          -2.91978681334510      0.77417455835705      2.51667513301642
  H          -3.95161910378633      2.19263694104663      1.27511300028250
  H          -3.80682785459476      0.19096500180543      2.72729896612543
  H          -1.92465943777352      3.51923886710121      0.79349532802287
  H           0.39744108353849      0.82601919989419      3.20098523234290
  H          -1.62587705529294     -0.47951096021492      3.69064143297799
  C           0.55260783678642      3.11185454354372      1.69146331371865
  N           1.48891875949321      3.33630460540737      2.75599700434252
  H           1.24623838009186      2.89158523187558      3.63150600876291
  H           1.73617252718609      4.30846943180075      2.88602422788647
  H           0.33742202646182      4.01027992211690      1.12874176702594
  H           1.14830573826751      2.34330999481382      0.38950008394092
  Cu          2.48790351869177      2.25503386794021      1.27065736183139
