18
Coordinates from ORCA-job orca E -1967.162164285117
  C          -3.03469075000712      2.15007667350007      1.96468865853678
  C          -1.83417200366005      2.70919765358999      1.53806438101308
  C          -0.62167188375783      2.07575360063532      1.81170940945776
  C          -0.62898026368021      0.87092994523050      2.51818835477214
  C          -1.82573487744195      0.31389009660429      2.94862173224915
  C          -3.03202951177233      0.95324140169112      2.67219731018939
  H          -3.96987441463101      2.64772080717405      1.74172471123551
  H          -3.96547843000182      0.51514655920070      3.00169182099166
  H          -1.83803817006959      3.64130245979635      0.98538152970429
  H           0.30724145806250      0.36256186292357      2.71920845445256
  H          -1.82032967439120     -0.62325762286313      3.49055636111102
  C           0.66339369010621      2.70938215215935      1.38442385264834
  N           1.42874491120535      3.31980838867144      2.50219983635185
  H           1.59860392870810      2.61498887364768      3.21695751267032
  H           0.84276366817434      4.02462507653089      2.94949788621155
  H           0.51813346865249      3.45656119069446      0.61071629561829
  H           1.49838261411886      1.75553528295628      0.82657561745185
  Cu          3.13619624038567      4.13699559785594      2.03063627533328
