18
Coordinates from ORCA-job orca E -1967.163008918261
  C          -2.96736180850817      2.20659552822851      2.05683330239469
  C          -1.75034574252391      2.71689481544665      1.62034690895058
  C          -0.57159672806796      1.99357786597208      1.80491814903872
  C          -0.63123640973668      0.74688256790096      2.42903974034832
  C          -1.84754542206363      0.23313397341708      2.86538466350744
  C          -3.01737950289270      0.96356134139513      2.68127184445456
  H          -3.87656292290351      2.77420719820612      1.90439655236958
  H          -3.96539012281025      0.56317030100819      3.01726755080396
  H          -1.71494202400956      3.68118599787083      1.12610805900956
  H           0.27805823491710      0.17337264117575      2.56972283465962
  H          -1.88316080249164     -0.73733266286984      3.34393377762806
  C           0.75631602767562      2.55817882767906      1.37294197776187
  N           1.36523383215261      3.42092319096391      2.44348510428188
  H           1.46167361389713      2.86839604623491      3.29378049437980
  H           0.71472952060961      4.16771704501661      2.67732809749389
  H           0.63036527740248      3.19138880811210      0.49501409644178
  H           1.34816772296705      1.89961049921163      1.18579410475202
  Cu          3.09343725638688      4.21299601502901      2.02547274172230
