18
Coordinates from ORCA-job orca E -1967.125908961920
  C          -3.00544893450191      1.89914768144168      1.70482780179284
  C          -1.86610643334023      2.64501722558981      1.42881873710620
  C          -0.63485069154395      2.27370145976408      1.97123262385318
  C          -0.55478041087130      1.13901586605914      2.78294659899379
  C          -1.69382361106985      0.39673666968341      3.05773678564069
  C          -2.92185447122771      0.77558056067173      2.51990879047184
  H          -3.95746672356256      2.19747198408840      1.28545169457917
  H          -3.80877706525301      0.19343149033373      2.73396488801435
  H          -1.93092114479458      3.52230460644068      0.79699019719745
  H           0.39906275702485      0.82177063523018      3.18787344663104
  H          -1.62434358411568     -0.48183789049712      3.68580241774156
  C           0.55129626643354      3.10800866646364      1.68146179723985
  N           1.49032031903753      3.33425341734312      2.74869997374013
  H           1.23856464011934      2.89372203820350      3.62406945362362
  H           1.72287056746956      4.30982391296167      2.88224002165820
  H           0.33540300825822      4.00773185246952      1.12078391904634
  H           1.16017592438093      2.34130326129371      0.40967040406588
  Cu          2.52313958755717      2.25727656245817      1.29056044860292
