18
Coordinates from ORCA-job orca E -1967.122665626182
  C          -2.96616431920490      1.85410158041604      1.63267657523208
  C          -1.82853658905715      2.61457087976952      1.40207544459297
  C          -0.62556843223093      2.28980135145061      2.03353739788946
  C          -0.57126500176182      1.18375205705234      2.88579662039537
  C          -1.71021893210195      0.42519989326778      3.11338181793812
  C          -2.90958283252459      0.75883274339242      2.48909570453897
  H          -3.89625797485336      2.11700776094036      1.14609707552805
  H          -3.79605097427529      0.16442089902081      2.66823248828393
  H          -1.86964758165956      3.46677166638374      0.73488376321686
  H           0.35769499092257      0.89640522621630      3.36345286912540
  H          -1.66210925426063     -0.42983280221136      3.77482746443354
  C           0.54202657577679      3.15515108903432      1.79114284041990
  N           1.50331098350889      3.31411907289221      2.80207560630109
  H           1.38613328441459      2.78408535340788      3.65405441612141
  H           1.87343506944599      4.24459831935239      2.93803338732792
  H           0.33560629803397      4.06470840438674      1.24524368295552
  H           1.03362590363833      2.40469482787460      0.15609836345834
  Cu          2.22602878618932      2.32607167735257      1.08233448224029
