18
Coordinates from ORCA-job orca E -1967.189840238474
  C          -2.99179926906552      2.19402456432440      2.03349803925529
  C          -1.78013827183392      2.71906176361491      1.59794564293027
  C          -0.58986268015386      2.02051344360890      1.80465678999415
  C          -0.63240377852221      0.78454130993174      2.45168514482822
  C          -1.84206654155769      0.25814614800321      2.88906580098344
  C          -3.02413519042035      0.96309742316342      2.68129543396866
  H          -3.90970687094327      2.74199334348230      1.86258759447196
  H          -3.96731172185108      0.55112072427908      3.01684000842087
  H          -1.75773221800503      3.67538439572705      1.08809776093090
  H           0.28598817829336      0.22936246689991      2.60517867761465
  H          -1.86400764867870     -0.70402567621180      3.38484749434225
  C           0.72102317626653      2.61324957799212      1.37401876887355
  N           1.37684546611395      3.39818174531930      2.46549117316359
  H           1.50407881069309      2.79458467492327      3.27571789728758
  H           0.73913062114592      4.13184571235660      2.77102488371617
  H           0.59399430599662      3.27740249771827      0.52193716732046
  H           1.46766221732195      1.77573292702448      1.06045696215404
  Cu          3.09290141520067      4.21024295784160      2.02869475974266
