18
Coordinates from ORCA-job orca E -1967.123316484792
  C          -2.96338815081154      1.85069569177980      1.62774751447710
  C          -1.82615108237380      2.61256369600243      1.40106009902233
  C          -0.62566139464852      2.29146465953973      2.03954089195783
  C          -0.57329613194475      1.18697716163653      2.89422944041425
  C          -1.71192565008636      0.42684961441165      3.11751568145854
  C          -2.90884040199124      0.75726644230082      2.48676008150361
  H          -3.89162162849572      2.11089851066458      1.13622420798245
  H          -3.79515169702891      0.16175765013459      2.66297957165298
  H          -1.86527575774805      3.46315433238166      0.73172954512256
  H           0.35355999472388      0.90229912732040      3.37748108338553
  H          -1.66568165700873     -0.42672036802093      3.78094869801751
  C           0.53887055749202      3.16045318125731      1.80289663944704
  N           1.50325453453465      3.31331974444246      2.80701282807495
  H           1.39841251397304      2.77608376312484      3.65607537646403
  H           1.88696688539089      4.23865149032963      2.94073658507286
  H           0.33537799829322      4.06928414142741      1.25476488106011
  H           1.03165607790064      2.40524983636674      0.12484559885618
  Cu          2.20135498982956      2.33421132489966      1.07049127602939
