18
Coordinates from ORCA-job orca E -1967.124233591176
  C          -2.99725236687010      1.89347742796941      1.69397202759841
  C          -1.85773325168504      2.64187784152420      1.42636186031740
  C          -0.63077058119146      2.27624960879448      1.98233440377927
  C          -0.55494204546440      1.14471521586936      2.79881918422273
  C          -1.69418836811011      0.39944746658185      3.06440027373330
  C          -2.91799666556395      0.77258510064653      2.51327199436105
  H          -3.94605922108603      2.18736770885119      1.26437293650117
  H          -3.80503986708445      0.18803980821962      2.72014766782715
  H          -1.91894695694544      3.51630469540608      0.79023653366919
  H           0.39526272175659      0.83077832980651      3.21466255592027
  H          -1.62775085215536     -0.47704021711600      3.69566931026843
  C           0.55325076127545      3.11568598963912      1.70120600061155
  N           1.48875249832884      3.33752998827330      2.76211277004114
  H           1.25551766338769      2.88829357461058      3.63767238464571
  H           1.74927698562009      4.30640510592007      2.88948414209552
  H           0.33870044553707      4.01290547462700      1.13662379454991
  H           1.13609650529250      2.34550399136145      0.36961463013905
  Cu          2.45628259495848      2.25433288901436      1.25207752971782
