18
Coordinates from ORCA-job orca E -1967.039630897395
  C          -2.96023942189243      2.20524167744788      2.05926469739646
  C          -1.74259057544299      2.71382869262766      1.62293752612156
  C          -0.56581775794692      1.98719551231784      1.80488911310532
  C          -0.62729676580779      0.73881587250807      2.42530603495137
  C          -1.84464481704179      0.22631326046121      2.86081025957277
  C          -3.01266878854737      0.96023532914815      2.67996669463825
  H          -3.86828994166652      2.77540601360496      1.90954685870472
  H          -3.96134655434796      0.56131739641747      3.01584540827685
  H          -1.70523125349493      3.67917770266140      1.13089804869507
  H           0.28077710021529      0.16300057578562      2.56514995081909
  H          -1.88218624279239     -0.74528578686047      3.33690731693313
  C           0.76619535801917      2.54203986844223      1.37311785111695
  N           1.36787442984047      3.42088495876692      2.43549674951288
  H           1.44226581612054      2.88486916817717      3.29863280189123
  H           0.72508235383040      4.18146766557163      2.64239497220235
  H           0.64239003561516      3.16567332678638      0.48868124253816
  H           1.25385706185166      1.99648900694376      1.23317028838800
  Cu          3.11432996348891      4.17778975919078      2.03002418513441
