18
Coordinates from ORCA-job orca E -1967.122420327224
  C          -2.98422788606925      1.87888017344440      1.66992978664439
  C          -1.84529820391693      2.63261886696635      1.41787973173855
  C          -0.62722660760481      2.28228483517097      2.00330510857116
  C          -0.55963689458768      1.16008299405418      2.83316442049927
  C          -1.69861824273108      0.40864297234820      3.08213580202160
  C          -2.91336218492751      0.76662767921325      2.50208923541935
  H          -3.92616952383125      2.16121057985509      1.21813590785154
  H          -3.80000013839771      0.17724110649932      2.69649008896752
  H          -1.89922260907865      3.49923874030572      0.77050515157245
  H           0.38280621476465      0.85565368942101      3.27284812653155
  H          -1.63862615785117     -0.46075631369270      3.72370257037613
  C           0.55120946167090      3.13170263480986      1.73704305210107
  N           1.49135951890003      3.33279688793650      2.78064447101176
  H           1.30370659141665      2.85468622323545      3.65110831437545
  H           1.80099085574367      4.28647649482546      2.90854198498756
  H           0.34136848786320      4.03131549803175      1.17548406386502
  H           1.08969715094588      2.36447948327073      0.28893231204677
  Cu          2.35371016769139      2.27127745430364      1.18109987141800
