18
Coordinates from ORCA-job orca E -1967.184906387916
  C          -2.97265626011705      2.20539134352422      2.05294509140451
  C          -1.75647101818362      2.71804839614916      1.61655726232897
  C          -0.57556614495112      1.99889902208701      1.80493927591800
  C          -0.63244251473672      0.75416336547633      2.43321681346736
  C          -1.84761913696212      0.23844869256065      2.86986414100042
  C          -3.01962949596445      0.96453889722505      2.68162495020136
  H          -3.88333178382887      2.76974222733118      1.89723405915659
  H          -3.96681820712103      0.56221487054210      3.01761716814541
  H          -1.72329405344048      3.68099892654723      1.11963184090846
  H           0.27850500930711      0.18381744627075      2.57569255418222
  H          -1.88089920383232     -0.73061560693329      3.35140790853306
  C           0.74824453022998      2.57061592385055      1.37328282056636
  N           1.36595315504422      3.41766962414113      2.44870647541498
  H           1.47359534817129      2.85322679362190      3.28967929532980
  H           0.71483759170744      4.15850109173198      2.70067984205496
  H           0.62276332796750      3.20948392268796      0.49985346115283
  H           1.39053440228080      1.85613503665855      1.15601390860562
  Cu          3.08675445442994      4.22318002652624      2.02409313162775
