18
Coordinates from ORCA-job orca E -1967.122157530239
  C          -2.97201613983133      1.86166965993349      1.64374501270937
  C          -1.83385567988015      2.61983372981882      1.40604190978433
  C          -0.62591671672000      2.28717141547492      2.02310592264389
  C          -0.56745294316431      1.17667099084052      2.86909647185274
  C          -1.70663143514453      0.42065151518802      3.10404403697775
  C          -2.91097033509885      0.76158276132888      2.49336402605627
  H          -3.90592839810447      2.13045760850192      1.16774398748339
  H          -3.79758187611831      0.16894569951971      2.67765813741142
  H          -1.87908432120679      3.47616988413704      0.74442756259919
  H           0.36584864185017      0.88359605461478      3.33479446070336
  H          -1.65466232766673     -0.43845035563834      3.75995319022204
  C           0.54595932463059      3.14650559382573      1.77152597680446
  N           1.50158968956976      3.31824031179931      2.79357833563460
  H           1.36083293328655      2.80433873242173      3.65198981143092
  H           1.84822246384855      4.25767343412554      2.93007876909437
  H           0.33652600231110      4.05439011114556      1.22381210871068
  H           1.04597005891152      2.39641604857733      0.20775492621338
  Cu          2.27161105852754      2.30859680438430      1.11032535366703
