18
Coordinates from ORCA-job orca E -1967.154450347000
  C          -2.96647412875326      2.20646669856821      2.05693450573849
  C          -1.74930608650361      2.71641735605033      1.62050914046377
  C          -0.57082030737721      1.99265507278243      1.80493670697043
  C          -0.63083974341153      0.74584225303640      2.42875849684954
  C          -1.84733910843822      0.23239286262769      2.86498006738810
  C          -3.01690339459235      0.96328315164987      2.68108306751586
  H          -3.87549079936885      2.77441969390487      1.90466394768006
  H          -3.96504004733764      0.56316964959794      3.01705539251383
  H          -1.71357587647713      3.68076140172850      1.12640215710170
  H           0.27826271810080      0.17200207410102      2.56947474511685
  H          -1.88327599724666     -0.73814186466047      3.34336883315576
  C           0.75767975581423      2.55606904719630      1.37282750654623
  N           1.36578229598494      3.42063625751238      2.44264673770221
  H           1.46053488084961      2.86963356671253      3.29414070281746
  H           0.71572893165595      4.16845868320947      2.67415831156086
  H           0.63175396845984      3.18853913119502      0.49429719201793
  H           1.33648639553251      1.91166390638427      1.19130646176352
  Cu          3.09529654310906      4.21019105840193      2.02549602709603
