18
Coordinates from ORCA-job orca E -1967.147029939763
  C          -3.06620599239151      2.09634150367695      1.88908588673940
  C          -1.87499094343579      2.69153197824206      1.48549650956199
  C          -0.64741804147561      2.12954942732398      1.83702475018660
  C          -0.63087158392741      0.95813019933331      2.59910178415719
  C          -1.81813944912033      0.36687298432062      3.00710871400026
  C          -3.03991619244183      0.93513850918656      2.65234901972894
  H          -4.01219609217542      2.54084750965055      1.60733171911041
  H          -3.96551344638695      0.46973942196185      2.96605545722496
  H          -1.89736415523216      3.59839629589597      0.89301285960767
  H           0.31479013643496      0.49640915802802      2.85955633870396
  H          -1.79320143055220     -0.54288722819676      3.59330046938879
  C           0.61756073122904      2.79515977525204      1.41309113826162
  N           1.49127863538203      3.23642278314827      2.52217620427333
  H           1.69625624053717      2.44647022984293      3.13006806719411
  H           0.97236658174078      3.89820510561424      3.10032990136064
  H           0.44829259631840      3.62380861531321      0.73449437141389
  H           1.43909545716371      1.84404107460919      0.62209245738912
  Cu          3.18863694833350      4.05028265679594      2.00136435169600
