18
Coordinates from ORCA-job orca E -1967.192539315964
  C          -2.97902988038044      2.20284550234574      2.04797892063846
  C          -1.76431938243875      2.71917977392283      1.61145465321428
  C          -0.58054972894637      2.00599345671690      1.80459352354596
  C          -0.63297875548575      0.76365555313290      2.43815702226600
  C          -1.84638004088826      0.24473337393563      2.87541660958411
  C          -3.02146260344259      0.96471613785822      2.68202106011457
  H          -3.89189593388214      2.76250158422568      1.88826256443065
  H          -3.96737590346029      0.55947139465372      3.01808736457229
  H          -1.73447802005944      3.68037990947938      1.11100129989518
  H           0.28024772857559      0.19774113868507      2.58326095272034
  H          -1.87615497200673     -0.72249028460590      3.36087182015274
  C           0.73896741438223      2.58493278662428      1.37337126408987
  N           1.36753691906187      3.41320210293924      2.45439562313660
  H           1.48269128615695      2.83621218705644      3.28570749800230
  H           0.71903145115201      4.15072950544373      2.72360542393881
  H           0.61288803884693      3.23161716136405      0.50653133814928
  H           1.43046995582661      1.81484767062362      1.12233711037731
  Cu          3.08525242698903      4.22419104559719      2.02598595116993
