18
Coordinates from ORCA-job orca E -1967.127004163688
  C          -2.95330384478902      1.83523060780522      1.60669667369164
  C          -1.81982487535889      2.60679182852917      1.40049859575407
  C          -0.63038594133930      2.30338975291080      2.07014497919377
  C          -0.58579960072198      1.20468286838677      2.93435168231737
  C          -1.72101649616353      0.43451284262007      3.13590511624819
  C          -2.90630339240091      0.74832116474079      2.47492190702742
  H          -3.87276923064864      2.08150009230265      1.09224079989103
  H          -3.79013492623276      0.14469463314721      2.63519905571170
  H          -1.85115443993364      3.45119701849638      0.72311698753304
  H           0.33106848552868      0.93293471188687      3.44308546670782
  H          -1.68199690597152     -0.41358944797662      3.80663135603190
  C           0.52125824450372      3.18533485323792      1.85409757081588
  N           1.51261320218602      3.30440882365958      2.81949251710939
  H           1.45641156340728      2.73896405586793      3.65501904470095
  H           1.94300124061213      4.21046814275851      2.94628967875525
  H           0.32847817487045      4.09410630541956      1.30163833475741
  H           1.03481499939586      2.40384200880334     -0.00943493231924
  Cu          2.10750374305630      2.36766973740326      1.02314516607177
