18
Coordinates from ORCA-job orca E -1967.159079862228
  C          -3.04102295685248      2.14133218974870      1.95160032343545
  C          -1.84172089148649      2.70651265463609      1.52926417849078
  C          -0.62626918246116      2.08505799673306      1.81660776989561
  C          -0.62944981774926      0.88565394576230      2.53265144791340
  C          -1.82480994600295      0.32271832365078      2.95866525495927
  C          -3.03422094900071      0.95021978337445      2.66839160767021
  H          -3.97828892045425      2.63025864326247      1.71833755031596
  H          -3.96652200232598      0.50729040864277      2.99464220426771
  H          -1.84875281796737      3.63458661809609      0.96993234273783
  H           0.30874406007204      0.38510612536494      2.74406223551649
  H          -1.81599074383400     -0.61014271615264      3.50789431360219
  C           0.65566464464125      2.72345216623618      1.38867381019516
  N           1.44044535128187      3.30592447761972      2.50634290927466
  H           1.62050152710568      2.58609018175197      3.20332857131399
  H           0.86429363378038      4.00316126389135      2.97784570029024
  H           0.50465158280854      3.48555918943799      0.63097499018613
  H           1.49070540444380      1.76567176574010      0.78918349615252
  Cu          3.14450202400150      4.12600698220256      2.02464129378123
