18
Coordinates from ORCA-job orca E -1967.137762668336
  C          -3.07498312616035      2.07659321567823      1.86334991245639
  C          -1.88691109216614      2.68568200852201      1.47228422803879
  C          -0.65627001566431      2.14837034002888      1.85227598331702
  C          -0.63417738855417      0.98703152870711      2.62994690428799
  C          -1.81869780152915      0.38232392243002      3.02516626242243
  C          -3.04324504912710      0.92603665036372      2.64233840434687
  H          -4.02297409995169      2.50258187000147      1.56058411926242
  H          -3.96653304659814      0.45015933174983      2.94693118965097
  H          -1.91343579262215      3.58483158516851      0.86843315536435
  H           0.31265063303330      0.54122915769010      2.91217609927236
  H          -1.78917142817527     -0.51911961766470      3.62379981113638
  C           0.59857291013115      2.82903304527496      1.43505472285183
  N           1.51231537014361      3.21228195092561      2.52824366299832
  H           1.72351961112268      2.39940214363303      3.10245364196180
  H           1.02447130061889      3.86330615478635      3.14508703603079
  H           0.42562770797531      3.67914683462271      0.78569929595441
  H           1.42485141095680      1.87357690364556      0.54545228867378
  Cu          3.20684989656711      4.01199297443555      1.97376328197201
