18
Coordinates from ORCA-job orca E -1967.144335287278
  C          -2.96557427062458      2.20634366164525      2.05712564251749
  C          -1.74828051020001      2.71598209597928      1.62073238301913
  C          -0.57006741427434      1.99177314197660      1.80493082823419
  C          -0.63041296068507      0.74480292840096      2.42838126723567
  C          -1.84708132118207      0.23160581924646      2.86450044080822
  C          -3.01638305359752      0.96296597987042      2.68091071142302
  H          -3.87441676346829      2.77464190245235      1.90510254909208
  H          -3.96463088801661      0.56310390030640      3.01687230010814
  H          -1.71224301937509      3.68041273193853      1.12681233224060
  H           0.27850333089743      0.17063773563912      2.56908499125399
  H          -1.88331573249468     -0.73902759011687      3.34266736196302
  C           0.75905174164435      2.55390939355149      1.37273297778595
  N           1.36623814644824      3.42046514662703      2.44174610709778
  H           1.45892810822777      2.87119469183450      3.29460725448156
  H           0.71677394897655      4.16954435413106      2.67052257223523
  H           0.63313954173714      3.18555484906364      0.49357368808787
  H           1.32483734365362      1.92364519142647      1.19700963874024
  Cu          3.09739377233363      4.20690406602598      2.02572695367445
