18
Coordinates from ORCA-job orca E -1967.122102132980
  C          -2.97511089873938      1.86618059849699      1.65046577592223
  C          -1.83678179137696      2.62332868674188      1.40920592490948
  C          -0.62613003245598      2.28612199536695      2.01817105139973
  C          -0.56523088626196      1.17247666024844      2.85988376381883
  C          -1.70428448329080      0.41744595075756      3.09818506991469
  C          -2.91139970155045      0.76278774600456      2.49539300770948
  H          -3.91118145732026      2.13849474975109      1.18073936686168
  H          -3.79796348858385      0.17083948423214      2.68213319222522
  H          -1.88436484370481      3.48246037588064      0.75141147472429
  H           0.37054273887807      0.87630496006774      3.31872762703863
  H          -1.65011967058344     -0.44450615536911      3.75017913616552
  C           0.54731442426270      3.14308641426870      1.76302465780960
  N           1.49830700945594      3.32255670895608      2.79069859122901
  H           1.34589418468360      2.81816353647133      3.65284726842499
  H           1.83671581932843      4.26539903811589      2.92462081976935
  H           0.33881121736271      4.04839080026917      1.21064530193131
  H           1.05657017452177      2.38698067051140      0.22836256725247
  Cu          2.29087168537498      2.29794777922778      1.12834540289266
