18
Coordinates from ORCA-job orca E -1967.170174346007
  C          -2.96823036670633      2.20677421642896      2.05688536491579
  C          -1.75139298371631      2.71744795421330      1.62030716298457
  C          -0.57239659498491      1.99455521608245      1.80490111008211
  C          -0.63161302123098      0.74790567181446      2.42918997689849
  C          -1.84771948236931      0.23380523591297      2.86565730913363
  C          -3.01781999638827      0.96379626852905      2.68145823275366
  H          -3.87761921123727      2.77407029242636      1.90440226751629
  H          -3.96569093371023      0.56308994777806      3.01747297254916
  H          -1.71631957341935      3.68174020046333      1.12603377937864
  H           0.27786955062130      0.17471666205663      2.56980447852411
  H          -1.88299849311238     -0.73664640305687      3.34426767341731
  C           0.75507764460183      2.56007154565958      1.37305204508393
  N           1.36456333935850      3.42139106151001      2.44421914746975
  H           1.46229291902812      2.86762971062996      3.29354787234960
  H           0.71370464984971      4.16737457290754      2.67988982254739
  H           0.62895310598712      3.19399344088099      0.49573174822654
  H           1.36002169464810      1.88730669499524      1.18055490684922
  Cu          3.09177775278113      4.21543771076665      2.02566412931845
