18
Coordinates from ORCA-job orca E -1967.191161262391
  C          -2.98792434169539      2.19731123446310      2.03882015435910
  C          -1.77537096729848      2.71955321179638      1.60272448325709
  C          -0.58719005737101      2.01610252559887      1.80450975586599
  C          -0.63281643081637      0.77785268987519      2.44683622300593
  C          -1.84360666893307      0.25382896306830      2.88438816579225
  C          -3.02343558529547      0.96383063010164      2.68180812535713
  H          -3.90421902864245      2.74920266478113      1.87193380701546
  H          -3.96745680864721      0.55399967240611      3.01761156413278
  H          -1.75065023633480      3.67762494141675      1.09617930939331
  H           0.28391251754049      0.21907727334603      2.59712869186452
  H          -1.86801741016171     -0.71017178887087      3.37649255521202
  C           0.72625700303813      2.60485631217116      1.37385412145727
  N           1.37290229172058      3.40399109143458      2.46213207451053
  H           1.49631913764314      2.80902598847025      3.27934827122556
  H           0.73123341643533      4.13885492881763      2.75566893816795
  H           0.59964450727450      3.26312235190038      0.51684318648135
  H           1.46358242684633      1.78017871457803      1.07841702936009
  Cu          3.08929623469793      4.21621859464411      2.02834354354040
