18
Coordinates from ORCA-job orca E -1967.176727584083
  C          -3.00516296999584      2.18469857227430      2.01886421251368
  C          -1.79696345898225      2.71910464261583      1.58423244677818
  C          -0.60009964154551      2.03637334038909      1.80545706826054
  C          -0.63208906514332      0.80711991985682      2.46623940415047
  C          -1.83775847363820      0.27242863228761      2.90312353319017
  C          -3.02695518138644      0.96129870883598      2.68052387435342
  H          -3.92818052028997      2.72026392872570      1.83666174400843
  H          -3.96715367842493      0.54200494984846      3.01532227688958
  H          -1.78239461721916      3.67034290830318      1.06491484559300
  H           0.29165624284748      0.26361628114384      2.62862822666796
  H          -1.85156761935640     -0.68450992580652      3.40918845298329
  C           0.70106367379579      2.64462874763559      1.37745814633867
  N           1.38541131817568      3.38318530610899      2.47734615328612
  H           1.52310378914124      2.75271910419540      3.26495633587872
  H           0.76020260950800      4.11239382006881      2.81940878247296
  H           0.57453039266850      3.32538663421260      0.54009787221217
  H           1.51423028798119      1.72873542650443      0.98871082603814
  Cu          3.10058691186459      4.19466900279872      2.03190579838325
