18
Coordinates from ORCA-job orca E -1967.124003873246
  C          -2.96096157706618      1.84747593678057      1.62319569641160
  C          -1.82424442229688      2.61092924810927      1.40045795246486
  C          -0.62610126945215      2.29340433746525      2.04561036813735
  C          -0.57548964794235      1.19024525711500      2.90244579577387
  C          -1.71365930389901      0.42839121420618      3.12142612433523
  C          -2.90821147156686      0.75563692400548      2.48445617829940
  H          -3.88741181679025      2.10500021032425      1.12696251052229
  H          -3.79425260443118      0.15885223101845      2.65768934240615
  H          -1.86157564116510      3.46011547048279      0.72926754484315
  H           0.34933948164043      0.90816222175857      3.39102200736214
  H          -1.66910330170653     -0.42391301519290      3.78656533313886
  C           0.53542102875697      3.16573963415313      1.81425805468413
  N           1.50381656931357      3.31224839640544      2.81114303423899
  H           1.41023270520640      2.76850373361220      3.65740199736993
  H           1.89955049134986      4.23287091656236      2.94286127015716
  H           0.33469421126208      4.07397226920101      1.26412652231803
  H           1.03147011858991      2.40482214839064      0.09438456185163
  Cu          2.17894645019754      2.34200286560164      1.05976570568451
