18
Coordinates from ORCA-job orca E -1967.186336113759
  C          -2.99643612557483      2.19087457661211      2.02842993375244
  C          -1.78595595386156      2.71914392604374      1.59320307994990
  C          -0.59338116389701      2.02601324996805      1.80480914850392
  C          -0.63228518923591      0.79233136482733      2.45659155336547
  C          -1.84055684786247      0.26311038867859      2.89395156488643
  C          -3.02511374422130      0.96250229069573      2.68101813226614
  H          -3.91614533276738      2.73454259447573      1.85356554235863
  H          -3.96726488853291      0.54798934057418      3.01630922989533
  H          -1.76626309856215      3.67372612620469      1.08005090447477
  H           0.28796752644775      0.24116806666260      2.61324379164755
  H          -1.85964343841471     -0.69722968692973      3.39338286589543
  C           0.71455661541994      2.62352464054134      1.37466303459042
  N           1.37988273143817      3.39292462615119      2.46955427046599
  H           1.51109494153752      2.77995551169133      3.27203110013568
  H           0.74623616009541      4.12496187463489      2.78785803678254
  H           0.58699709531287      3.29410438712588      0.52819462867606
  H           1.48330843078188      1.75950801437973      1.03625364591991
  Cu          3.09546228189713      4.20530870766140      2.02992953643213
