18
Coordinates from ORCA-job orca E -1967.126064725399
  C          -2.95540935554753      1.83891642171164      1.61155722948295
  C          -1.82075245624648      2.60770551487222      1.40009698631178
  C          -0.62870899750046      2.29996852676362      2.06246438963236
  C          -0.58237604787296      1.20004167399242      2.92460617542145
  C          -1.71868703952294      0.43270370729350      3.13168649786930
  C          -2.90683918308520      0.75075694556964      2.47800681474146
  H          -3.87701300961055      2.08869509203620      1.10260569421588
  H          -3.79153513199004      0.14952474661547      2.64248492427619
  H          -1.85376612275598      3.45340678247562      0.72438038522747
  H           0.33697303814876      0.92509999825945      3.42722197611046
  H          -1.67812805800576     -0.41653144073313      3.80091679099799
  C           0.52567047760278      3.17947736080812      1.84252256722493
  N           1.50918108466946      3.30715466193779      2.81806680190988
  H           1.44215708213220      2.74777831143823      3.65679090981330
  H           1.93032077602914      4.21721984543746      2.94629927439493
  H           0.33064480752617      4.08774158626549      1.29015933123177
  H           1.03350188062190      2.40408023438131      0.01964258638319
  Cu          2.12722625540776      2.36072003087435      1.03353066475404
