18
Coordinates from ORCA-job orca E -1967.126986853483
  C          -3.01044354993440      1.90213206093232      1.71080833379868
  C          -1.87131703319700      2.64673443000525      1.43020998749966
  C          -0.63769654887915      2.27252743198581      1.96523996853513
  C          -0.55540178836821      1.13629223106448      2.77466571956747
  C          -1.69421510998439      0.39545970060539      3.05440819957010
  C          -2.92444872221760      0.77714564168028      2.52364349047267
  H          -3.96416959076284      2.20269366129045      1.29692233634460
  H          -3.81122665045593      0.19617456640099      2.74150204001732
  H          -1.93816446686427      3.52542531594225      0.80053703997229
  H           0.40018422207604      0.81712281994220      3.17396467191958
  H          -1.62293493563953     -0.48418756639792      3.68078798247180
  C           0.54945443956422      3.10376752665568      1.67025052866656
  N           1.49236997427223      3.33161927814137      2.74017582644504
  H           1.23156989316519      2.89461763944411      3.61502335867760
  H           1.70836690656738      4.31070037938689      2.87794534544678
  H           0.33180201899044      4.00508108050200      1.11246656254126
  H           1.17427968695118      2.33942465324010      0.43025120783759
  Cu          2.56445125471701      2.26172914917740      1.31423740021490
