18
Coordinates from ORCA-job orca E -1967.132557292735
  C          -2.96468205801302      2.20620185532220      2.05737646857656
  C          -1.74728717570642      2.71557508127922      1.62100555730673
  C          -0.56933639769791      1.99093342808388      1.80492201506414
  C          -0.62996169905977      0.74377449726175      2.42795656422650
  C          -1.84678159247051      0.23078425752061      2.86397606403051
  C          -3.01583455215382      0.96260136373135      2.68074329707474
  H          -3.87336606629384      2.77483167119289      1.90564342232113
  H          -3.96418057571299      0.56295769537500      3.01668722693623
  H          -1.71097135745820      3.68011209054460      1.12731134526788
  H           0.27877917406841      0.16929380543244      2.56860778004928
  H          -1.88328959792174     -0.73997087000544      3.34187511108980
  C           0.76039176515083      2.55178169137024      1.37267341741221
  N           1.36664774737599      3.42038355545913      2.44079767875847
  H           1.45695132897565      2.87300264010736      3.29514991849087
  H           0.71793043741440      4.17093864345088      2.66652987128610
  H           0.63454088870341      3.18248798661394      0.49283581742644
  H           1.31316343348933      1.93564518458906      1.20283736451225
  Cu          3.09974629731068      4.20312542266954      2.02611108016879
