18
Coordinates from ORCA-job orca E -1967.063656726336
  C          -2.96112848139075      2.20545887256666      2.05880880485980
  C          -1.74350791287115      2.71413136973832      1.62245647364733
  C          -0.56651961256484      1.98788210643028      1.80486171593427
  C          -0.62788039858264      0.73978713111783      2.42588183570290
  C          -1.84514245666316      0.22725562878208      2.86151756096789
  C          -3.01334825349829      0.96077748721438      2.68013181433258
  H          -3.86928841107113      2.77533013846775      1.90862584555099
  H          -3.96197570556152      0.56176384496381      3.01603909949331
  H          -1.70632019927288      3.67927747338369      1.13000991334511
  H           0.28030143588408      0.16421048134387      2.56595592105722
  H          -1.88251020293336     -0.74413832508941      3.33804714450222
  C           0.76516279422395      2.54386493771533      1.37289854084718
  N           1.36773380214513      3.42067356203672      2.43663888846242
  H           1.44575298340671      2.88213798706893      3.29786932484767
  H           0.72348313072165      4.17894762228805      2.64771987559396
  H           0.64066901103795      3.16929602492914      0.48956771702866
  H           1.26585912444306      1.98419730450520      1.22695223819221
  Cu          3.11111935254768      4.18360635253603      2.02905728563286
