18
Coordinates from ORCA-job orca_IRC_F E -1967.141920691100
  C          -2.98932835403392      1.85414971054260      1.63698552659042
  C          -1.86899133673590      2.64494433273760      1.44677084418051
  C          -0.67540675231559      2.34366077050423      2.11989817303120
  C          -0.60078244359385      1.19990414393541      2.93317360538374
  C          -1.71986685504233      0.40997569216184      3.10735327165831
  C          -2.91929512232864      0.74555238766484      2.47542438856007
  H          -3.91630579759049      2.10383694158117      1.13926504435095
  H          -3.79813063062308      0.13514004250447      2.63579668691053
  H          -1.90913135669913      3.50931639498126      0.79621804285205
  H           0.33016626597488      0.91505267528614      3.40728068997243
  H          -1.66542385243512     -0.46971326444699      3.73436628012581
  C           0.41212437362289      3.27477174582581      1.97076681332859
  N           1.47867612845369      3.34337524253246      2.81158175151796
  H           1.50085925566397      2.77118656207295      3.64837335950836
  H           1.97334740360185      4.22523894563191      2.88937900383105
  H           0.26230540945590      4.14181007720624      1.33877412675933
  H           1.67279870737957      1.96948749805317     -0.36398698141199
  Cu          2.01424162936016      2.41026615017000      1.03550811141420
