18
Properties=species:S:1:pos:R:3 energy=-1967.122009004961 pbc="F F F"
C       -2.97582000       1.86156000       1.65940300
C       -1.84070500       2.62299100       1.41573600
C       -0.62635100       2.28622200       2.01747700
C       -0.55825100       1.16792600       2.85312000
C       -1.69386500       0.40876400       3.09331600
C       -2.90502900       0.75445500       2.49864700
H       -3.91504300       2.13338200       1.19572000
H       -3.78906300       0.15910500       2.68669700
H       -1.89384200       3.48516500       0.76228700
H        0.38094400       0.87170000       3.30498500
H       -1.63412800      -0.45654300       3.74039000
C        0.54270000       3.14957200       1.76338800
N        1.48751100       3.33722600       2.79297700
H        0.33392100       4.05042500       1.20390000
H        1.06150800       2.38430000       0.21665000
H        1.82735600       4.28003600       2.92385500
H        1.33837800       2.83192000       3.65529300
Cu       2.28224200       2.30625700       1.12919800
18
Properties=species:S:1:pos:R:3 energy=-1967.121980801585 pbc="F F F"
C       -2.97867200       1.86561600       1.66556400
C       -1.84335100       2.62583600       1.41823800
C       -0.62662500       2.28493000       2.01249300
C       -0.55623900       1.16400700       2.84432500
C       -1.69179800       0.40591400       3.08795500
C       -2.90549400       0.75566700       2.50076300
H       -3.91988500       2.14070800       1.20791600
H       -3.78955600       0.16119800       2.69142400
H       -1.89850300       3.49044800       0.76814200
H        0.38513300       0.86511200       3.29000200
H       -1.63009800      -0.46171400       3.73168700
C        0.54380800       3.14635300       1.75571400
N        1.48341600       3.34108300       2.79094300
H        0.33587500       4.04496400       1.19230300
H        1.07163400       2.37558700       0.23573200
H        1.81801800       4.28621200       2.91873700
H        1.32413100       2.84387500       3.65619800
Cu       2.30066700       2.29866400       1.14490300
18
Properties=species:S:1:pos:R:3 energy=-1967.12198147447 pbc="F F F"
C       -2.97813300       1.86435000       1.66379600
C       -1.84288100       2.62478200       1.41702900
C       -0.62671500       2.28513900       2.01321600
C       -0.55682100       1.16516800       2.84637300
C       -1.69244100       0.40703700       3.08966900
C       -2.90554900       0.75555600       2.50058300
H       -3.91883900       2.13840500       1.20444400
H       -3.78961900       0.16103700       2.69105100
H       -1.89754700       3.48848500       0.76574100
H        0.38403800       0.86708400       3.29360000
H       -1.63122100      -0.45969700       3.73471800
C        0.54346300       3.14689900       1.75688400
N        1.48505400       3.33900300       2.79077200
H        0.33476000       4.04698900       1.19604900
H        1.06852000       2.38027500       0.23338400
H        1.81939000       4.28390700       2.92053400
H        1.32793300       2.83925100       3.65491100
Cu       2.29906800       2.30078900       1.14028700
18
Properties=species:S:1:pos:R:3 energy=-1967.12198150247 pbc="F F F"
C       -2.97809900       1.86426600       1.66367400
C       -1.84284300       2.62470700       1.41696700
C       -0.62672000       2.28515300       2.01330000
C       -0.55687600       1.16524600       2.84654800
C       -1.69250200       0.40708800       3.08977200
C       -2.90556100       0.75552700       2.50054300
H       -3.91877200       2.13827200       1.20422800
H       -3.78963500       0.16099500       2.69096300
H       -1.89746900       3.48837600       0.76562000
H        0.38393200       0.86718300       3.29389700
H       -1.63132300      -0.45959400       3.73488300
C        0.54343700       3.14694600       1.75696100
N        1.48518700       3.33889500       2.79073300
H        0.33467100       4.04711700       1.19628600
H        1.06826400       2.38048800       0.23329000
H        1.81956000       4.28378300       2.92059100
H        1.32822600       2.83899800       3.65482600
Cu       2.29898300       2.30101300       1.13995900
