18
Coordinates from ORCA-job orca E -1967.122157027469
  C      -2.972014      1.861667      1.643742
  C      -1.833855      2.619833      1.406040
  C      -0.625916      2.287172      2.023106
  C      -0.567453      1.176674      2.869099
  C      -1.706632      0.420654      3.104046
  C      -2.910969      0.761582      2.493363
  H      -3.905925      2.130452      1.167738
  H      -3.797580      0.168944      2.677655
  H      -1.879083      3.476168      0.744425
  H       0.365847      0.883601      3.334802
  H      -1.654663     -0.438445      3.759959
  C       0.545961      3.146507      1.771526
  N       1.501591      3.318237      2.793582
  H       1.360843      2.804325      3.651988
  H       1.848233      4.257666      2.930084
  H       0.336525      4.054397      1.223823
  H       1.045957      2.396418      0.207750
  Cu      2.271593      2.308608      1.110312
18
Coordinates from ORCA-job orca E -1967.122109734601
  C      -2.974101      1.863494      1.646826
  C      -1.836179      2.621545      1.407432
  C      -0.626477      2.287237      2.020021
  C      -0.566448      1.175353      2.864075
  C      -1.705455      0.419494      3.100817
  C      -2.911239      0.761715      2.494132
  H      -3.909108      2.133629      1.174125
  H      -3.797419      0.169012      2.679582
  H      -1.883035      3.479428      0.747716
  H       0.367864      0.881360      3.326926
  H      -1.651944     -0.440764      3.755182
  C       0.546686      3.144435      1.764309
  N       1.501442      3.318431      2.789181
  H       1.351896      2.810971      3.649905
  H       1.842659      4.259965      2.925300
  H       0.336651      4.052988      1.217924
  H       1.046485      2.397929      0.231245
  Cu      2.290182      2.298240      1.118341
18
Coordinates from ORCA-job orca E -1967.122107154572
  C      -2.975051      1.865045      1.649337
  C      -1.837051      2.622706      1.408476
  C      -0.626611      2.286780      2.018487
  C      -0.565735      1.173887      2.861120
  C      -1.704516      0.418151      3.098873
  C      -2.911323      0.762185      2.494953
  H      -3.910968      2.136697      1.178957
  H      -3.797700      0.169988      2.681508
  H      -1.884701      3.481462      0.750137
  H       0.369632      0.878716      3.321422
  H      -1.650224     -0.443157      3.751711
  C       0.546956      3.143910      1.762994
  N       1.498774      3.320988      2.790058
  H       1.347141      2.815513      3.651632
  H       1.839391      4.262943      2.924599
  H       0.338394      4.050678      1.213047
  H       1.053698      2.391904      0.230448
  Cu      2.292354      2.296063      1.125282
18
Coordinates from ORCA-job orca E -1967.122107760340
  C      -2.975517      1.866021      1.650599
  C      -1.837477      2.623565      1.409405
  C      -0.626667      2.286705      2.018167
  C      -0.565385      1.173008      2.859763
  C      -1.704127      0.417384      3.097814
  C      -2.911355      0.762357      2.495154
  H      -3.911734      2.138144      1.181098
  H      -3.797653      0.169963      2.681694
  H      -1.885390      3.482869      0.751851
  H       0.370477      0.877107      3.318638
  H      -1.649559     -0.444735      3.749538
  C       0.547041      3.143568      1.762495
  N       1.497529      3.322696      2.790333
  H       1.345086      2.818968      3.652772
  H       1.838520      4.264743      2.923010
  H       0.339133      4.049223      1.210426
  H       1.056204      2.388753      0.231599
  Cu      2.293335      2.294120      1.128684
18
Coordinates from ORCA-job orca E -1967.122081136159
  C      -2.975533      1.866067      1.650650
  C      -1.837443      2.623551      1.409334
  C      -0.626591      2.286595      2.017996
  C      -0.565294      1.172912      2.859563
  C      -1.704082      0.417451      3.097847
  C      -2.911387      0.762491      2.495313
  H      -3.911769      2.138247      1.181182
  H      -3.797707      0.170178      2.682023
  H      -1.885371      3.482825      0.751750
  H       0.370624      0.876890      3.318216
  H      -1.649533     -0.444638      3.749629
  C       0.547075      3.143498      1.762395
  N       1.497422      3.322721      2.790383
  H       1.344910      2.818679      3.652646
  H       1.837973      4.264850      2.923413
  H       0.339166      4.049128      1.210324
  H       1.056471      2.388478      0.231600
  Cu      2.293528      2.294536      1.128775
