18
Coordinates from ORCA-job orca E -1967.122009004961
  C      -2.975820      1.861560      1.659403
  C      -1.840705      2.622991      1.415736
  C      -0.626351      2.286222      2.017477
  C      -0.558251      1.167926      2.853120
  C      -1.693865      0.408764      3.093316
  C      -2.905029      0.754455      2.498647
  H      -3.915043      2.133382      1.195720
  H      -3.789063      0.159105      2.686697
  H      -1.893842      3.485165      0.762287
  H       0.380944      0.871700      3.304985
  H      -1.634128     -0.456543      3.740390
  C       0.542700      3.149572      1.763388
  N       1.487511      3.337226      2.792977
  H       0.333921      4.050425      1.203900
  H       1.061508      2.384300      0.216650
  H       1.827356      4.280036      2.923855
  H       1.338378      2.831920      3.655293
  Cu      2.282242      2.306257      1.129198
18
Coordinates from ORCA-job orca E -1967.121980801585
  C      -2.978672      1.865616      1.665564
  C      -1.843351      2.625836      1.418238
  C      -0.626625      2.284930      2.012493
  C      -0.556239      1.164007      2.844325
  C      -1.691798      0.405914      3.087955
  C      -2.905494      0.755667      2.500763
  H      -3.919885      2.140708      1.207916
  H      -3.789556      0.161198      2.691424
  H      -1.898503      3.490448      0.768142
  H       0.385133      0.865112      3.290002
  H      -1.630098     -0.461714      3.731687
  C       0.543808      3.146353      1.755714
  N       1.483416      3.341083      2.790943
  H       0.335875      4.044964      1.192303
  H       1.071634      2.375587      0.235732
  H       1.818018      4.286212      2.918737
  H       1.324131      2.843875      3.656198
  Cu      2.300667      2.298664      1.144903
18
Coordinates from ORCA-job orca E -1967.121981474470
  C      -2.978133      1.864350      1.663796
  C      -1.842881      2.624782      1.417029
  C      -0.626715      2.285139      2.013216
  C      -0.556821      1.165168      2.846373
  C      -1.692441      0.407037      3.089669
  C      -2.905549      0.755556      2.500583
  H      -3.918839      2.138405      1.204444
  H      -3.789619      0.161037      2.691051
  H      -1.897547      3.488485      0.765741
  H       0.384038      0.867084      3.293600
  H      -1.631221     -0.459697      3.734718
  C       0.543463      3.146899      1.756884
  N       1.485054      3.339003      2.790772
  H       0.334760      4.046989      1.196049
  H       1.068520      2.380275      0.233384
  H       1.819390      4.283907      2.920534
  H       1.327933      2.839251      3.654911
  Cu      2.299068      2.300789      1.140287
18
Coordinates from ORCA-job orca E -1967.121981502470
  C      -2.978099      1.864266      1.663674
  C      -1.842843      2.624707      1.416967
  C      -0.626720      2.285153      2.013300
  C      -0.556876      1.165246      2.846548
  C      -1.692502      0.407088      3.089772
  C      -2.905561      0.755527      2.500543
  H      -3.918772      2.138272      1.204228
  H      -3.789635      0.160995      2.690963
  H      -1.897469      3.488376      0.765620
  H       0.383932      0.867183      3.293897
  H      -1.631323     -0.459594      3.734883
  C       0.543437      3.146946      1.756961
  N       1.485187      3.338895      2.790733
  H       0.334671      4.047117      1.196286
  H       1.068264      2.380488      0.233290
  H       1.819560      4.283783      2.920591
  H       1.328226      2.838998      3.654826
  Cu      2.298983      2.301013      1.139959
