18
Coordinates from ORCA-job orca E -1967.143578295453
  C          -2.97740107257963      1.81283500739579      1.58725192730190
  C          -1.88698135009673      2.65711216594694      1.48411963683046
  C          -0.71900297769880      2.39602218280677      2.22421026895927
  C          -0.66507453699576      1.27033539101661      3.06797071713334
  C          -1.75963357508728      0.43565742501605      3.16558624011986
  C          -2.91427214961303      0.70288201798175      2.42540577916756
  H          -3.87456584234109      2.01528118907006      1.01841416427605
  H          -3.76598767715238      0.04001865928983      2.50563529422420
  H          -1.92165295174248      3.52158517674486      0.83358927929345
  H           0.22384626837877      1.04413216693636      3.64184419069300
  H          -1.72183289096818     -0.42833207539974      3.81500901896189
  C           0.36434386496131      3.31888221075776      2.06701554942121
  N           1.53642129344205      3.28379977352817      2.74106981931164
  H           1.68002532030509      2.62238289139540      3.49700332505580
  H           2.07459894104661      4.14106451203008      2.81744568386925
  H           0.18774334753066      4.22563456276663      1.50050899082644
  H           1.79118528962253      1.99721367960511     -0.52842847633635
  Cu          1.93009737110322      2.47144911205664      0.89927732945448
