18
Coordinates from ORCA-job orca E -1967.141967495691
  C      -2.989328      1.854150      1.636986
  C      -1.868991      2.644944      1.446771
  C      -0.675407      2.343661      2.119898
  C      -0.600782      1.199904      2.933174
  C      -1.719867      0.409976      3.107353
  C      -2.919295      0.745552      2.475424
  H      -3.916306      2.103837      1.139265
  H      -3.798131      0.135140      2.635797
  H      -1.909131      3.509316      0.796218
  H       0.330166      0.915053      3.407281
  H      -1.665424     -0.469713      3.734366
  C       0.412124      3.274772      1.970767
  N       1.478676      3.343375      2.811582
  H       1.500859      2.771187      3.648373
  H       1.973347      4.225239      2.889379
  H       0.262305      4.141810      1.338774
  H       1.672799      1.969487     -0.363987
  Cu      2.014242      2.410266      1.035508
18
Coordinates from ORCA-job orca E -1967.142269203636
  C      -2.983991      1.843919      1.623205
  C      -1.870545      2.650814      1.458984
  C      -0.679909      2.353705      2.140844
  C      -0.614962      1.220419      2.969930
  C      -1.729309      0.418942      3.123944
  C      -2.915875      0.732182      2.457271
  H      -3.902649      2.079732      1.103298
  H      -3.786937      0.103777      2.589827
  H      -1.909713      3.515651      0.809127
  H       0.306311      0.950675      3.470610
  H      -1.679104     -0.456785      3.756813
  C       0.414802      3.276825      1.979868
  N       1.498266      3.328866      2.800561
  H       1.536807      2.745212      3.628355
  H       2.001682      4.205766      2.878087
  H       0.258737      4.152483      1.361278
  H       1.640084      1.991836     -0.395188
  Cu      1.998161      2.413937      1.006114
18
Coordinates from ORCA-job orca E -1967.142686068079
  C      -2.966292      1.818512      1.588246
  C      -1.864846      2.649021      1.466164
  C      -0.690223      2.374495      2.186434
  C      -0.644469      1.259049      3.040996
  C      -1.749135      0.437652      3.158338
  C      -2.907333      0.710239      2.427437
  H      -3.866696      2.029088      1.026934
  H      -3.762905      0.052928      2.513748
  H      -1.899395      3.511273      0.812679
  H       0.251722      1.022424      3.600010
  H      -1.712602     -0.423554      3.811709
  C       0.416072      3.282922      2.008617
  N       1.537128      3.293980      2.779236
  H       1.615276      2.677694      3.579632
  H       2.059271      4.159640      2.859636
  H       0.246283      4.180113      1.425529
  H       1.564190      2.058432     -0.464242
  Cu      1.955809      2.434050      0.941824
18
Coordinates from ORCA-job orca E -1967.142837309690
  C      -2.952531      1.802481      1.566074
  C      -1.855917      2.640738      1.461196
  C      -0.694814      2.382940      2.209622
  C      -0.659599      1.276410      3.076217
  C      -1.760513      0.447984      3.178131
  C      -2.903434      0.702603      2.417454
  H      -3.842127      2.000613      0.983529
  H      -3.754562      0.037914      2.489780
  H      -1.883554      3.496335      0.798580
  H       0.221751      1.055688      3.663818
  H      -1.733769     -0.403205      3.844954
  C       0.413380      3.286989      2.030725
  N       1.555605      3.273359      2.768501
  H       1.659221      2.633637      3.547709
  H       2.086279      4.133459      2.853191
  H       0.235675      4.197658      1.471282
  H       1.522504      2.106697     -0.503561
  Cu      1.928262      2.455653      0.905727
18
Coordinates from ORCA-job orca E -1967.143001414095
  C      -2.936843      1.785002      1.543025
  C      -1.842019      2.625126      1.448879
  C      -0.696945      2.384959      2.227823
  C      -0.672920      1.288084      3.106922
  C      -1.773157      0.457670      3.198877
  C      -2.902322      0.699034      2.413889
  H      -3.815712      1.972548      0.941271
  H      -3.755186      0.036501      2.484007
  H      -1.858145      3.469642      0.771707
  H       0.192628      1.082353      3.722515
  H      -1.758461     -0.381337      3.881306
  C       0.407341      3.290865      2.057726
  N       1.570539      3.252250      2.757918
  H       1.703810      2.583824      3.508290
  H       2.106165      4.108514      2.851229
  H       0.220959      4.216172      1.525557
  H       1.491803      2.166285     -0.546482
  Cu      1.900322      2.490465      0.868468
18
Coordinates from ORCA-job orca E -1967.143110737083
  C      -2.934206      1.780428      1.538077
  C      -1.838050      2.617530      1.440991
  C      -0.697119      2.382245      2.227812
  C      -0.674162      1.288247      3.109973
  C      -1.775923      0.460093      3.204266
  C      -2.904531      0.701574      2.418687
  H      -3.811496      1.965852      0.933509
  H      -3.761867      0.045879      2.497083
  H      -1.848938      3.456099      0.756382
  H       0.189959      1.084663      3.728612
  H      -1.763321     -0.375719      3.890630
  C       0.401550      3.293493      2.068094
  N       1.569862      3.246346      2.756324
  H       1.713038      2.565434      3.493958
  H       2.105076      4.102315      2.856049
  H       0.214396      4.223037      1.543422
  H       1.503358      2.183337     -0.560693
  Cu      1.894231      2.507104      0.859753
18
Coordinates from ORCA-job orca E -1967.143244659426
  C      -2.939629      1.782563      1.542622
  C      -1.841883      2.615776      1.437354
  C      -0.698687      2.379248      2.221159
  C      -0.670713      1.283522      3.100701
  C      -1.774094      0.458221      3.201745
  C      -2.908552      0.706322      2.427085
  H      -3.819969      1.969382      0.943031
  H      -3.770922      0.058991      2.518179
  H      -1.851175      3.451988      0.749942
  H       0.199257      1.075325      3.709765
  H      -1.757725     -0.379994      3.885056
  C       0.392114      3.299045      2.074354
  N       1.561215      3.248843      2.757347
  H       1.709270      2.560256      3.487076
  H       2.094461      4.105699      2.861750
  H       0.209513      4.227551      1.546117
  H       1.552422      2.169636     -0.564142
  Cu      1.896954      2.515583      0.863787
18
Coordinates from ORCA-job orca E -1967.143371460923
  C      -2.947525      1.787187      1.550311
  C      -1.851465      2.622144      1.443700
  C      -0.703416      2.381507      2.220144
  C      -0.669893      1.281260      3.094516
  C      -1.772045      0.454500      3.196429
  C      -2.910676      0.706679      2.429447
  H      -3.830920      1.975128      0.955577
  H      -3.773001      0.059610      2.523053
  H      -1.863276      3.462032      0.760918
  H       0.204409      1.069154      3.695801
  H      -1.750729     -0.388644      3.873473
  C       0.382312      3.306828      2.079591
  N       1.554448      3.255026      2.754568
  H       1.708204      2.562457      3.479319
  H       2.088165      4.111857      2.858201
  H       0.205519      4.231784      1.543201
  H       1.612707      2.134474     -0.564132
  Cu      1.899038      2.514971      0.868811
18
Coordinates from ORCA-job orca E -1967.143484897761
  C      -2.959832      1.796696      1.564289
  C      -1.867582      2.637296      1.460014
  C      -0.710824      2.388476      2.221708
  C      -0.668438      1.278782      3.085012
  C      -1.766988      0.447585      3.184790
  C      -2.911381      0.704319      2.427461
  H      -3.848548      1.988296      0.978661
  H      -3.769159      0.050353      2.515490
  H      -1.887882      3.487862      0.790844
  H       0.211452      1.061783      3.676161
  H      -1.738151     -0.403779      3.851146
  C       0.372411      3.315570      2.078938
  N       1.546261      3.267104      2.749607
  H       1.701391      2.578188      3.477730
  H       2.081885      4.123670      2.846564
  H       0.201916      4.232935      1.527664
  H       1.690095      2.071803     -0.552904
  Cu      1.905231      2.501017      0.879754
18
Coordinates from ORCA-job orca E -1967.143542923956
  C      -2.969417      1.805689      1.576719
  C      -1.879888      2.650878      1.475648
  C      -0.716275      2.395012      2.224660
  C      -0.666965      1.276343      3.077139
  C      -1.762056      0.441119      3.173475
  C      -2.911168      0.701800      2.423666
  H      -3.862761      2.002063      0.999743
  H      -3.763857      0.040127      2.503627
  H      -1.908760      3.511323      0.819562
  H       0.217001      1.055320      3.660559
  H      -1.727532     -0.417384      3.830322
  C       0.367215      3.320097      2.073705
  N       1.540751      3.278382      2.745112
  H       1.693037      2.598499      3.482423
  H       2.077953      4.134912      2.833708
  H       0.197917      4.230585      1.510790
  H       1.744071      2.018831     -0.537990
  Cu      1.912591      2.484361      0.890059
18
Coordinates from ORCA-job orca E -1967.143562158924
  C      -2.973360      1.810256      1.582682
  C      -1.884163      2.656416      1.482431
  C      -0.717851      2.397341      2.225894
  C      -0.665753      1.274172      3.072786
  C      -1.759627      0.437852      3.167852
  C      -2.911301      0.701230      2.422158
  H      -3.868921      2.009977      1.010313
  H      -3.761952      0.036552      2.498794
  H      -1.917145      3.520732      0.831624
  H       0.220293      1.050786      3.652151
  H      -1.722915     -0.424095      3.820054
  C       0.366492      3.320224      2.069035
  N       1.538562      3.283910      2.743452
  H       1.686969      2.611551      3.488550
  H       2.076094      4.140725      2.827206
  H       0.194366      4.227791      1.502316
  H       1.763889      1.997032     -0.529856
  Cu      1.918180      2.475504      0.895490
18
Coordinates from ORCA-job orca E -1967.143568144069
  C      -2.974662      1.811870      1.584788
  C      -1.884808      2.657283      1.483863
  C      -0.717889      2.397194      2.225809
  C      -0.665180      1.272472      3.070765
  C      -1.759136      0.436654      3.166204
  C      -2.912055      0.701735      2.422618
  H      -3.870962      2.013389      1.014232
  H      -3.762700      0.037107      2.499613
  H      -1.919073      3.522013      0.833653
  H       0.221862      1.047910      3.648175
  H      -1.722075     -0.426446      3.816859
  C       0.366699      3.319175      2.066850
  N       1.537896      3.285436      2.742852
  H       1.684007      2.617259      3.492246
  H       2.075265      4.142565      2.824558
  H       0.190788      4.226416      1.500814
  H       1.771931      1.992811     -0.527987
  Cu      1.921951      2.473113      0.897018
18
Coordinates from ORCA-job orca E -1967.143571736908
  C      -2.974966      1.811896      1.585020
  C      -1.884368      2.656206      1.482929
  C      -0.717616      2.396117      2.225063
  C      -0.665110      1.271369      3.070019
  C      -1.759653      0.436570      3.166607
  C      -2.913070      0.702564      2.424001
  H      -3.871268      2.013988      1.014694
  H      -3.764542      0.039248      2.503000
  H      -1.918556      3.519978      0.831431
  H       0.222418      1.046368      3.646538
  H      -1.722956     -0.426500      3.817323
  C       0.366630      3.318371      2.066718
  N       1.537803      3.284761      2.742509
  H       1.683259      2.618141      3.493470
  H       2.075027      4.142076      2.823614
  H       0.187755      4.226447      1.502963
  H       1.776885      1.996195     -0.529429
  Cu      1.924186      2.474157      0.896459
18
Coordinates from ORCA-job orca E -1967.143574185954
  C      -2.975237      1.811616      1.584973
  C      -1.884268      2.655265      1.481937
  C      -0.717583      2.395263      2.224231
  C      -0.665147      1.270770      3.069532
  C      -1.760171      0.436697      3.167189
  C      -2.913855      0.703168      2.425230
  H      -3.871460      2.013705      1.014534
  H      -3.766053      0.041007      2.506041
  H      -1.918168      3.518292      0.829433
  H       0.222776      1.045536      3.645363
  H      -1.723693     -0.426157      3.818202
  C       0.366134      3.318265      2.067347
  N       1.537650      3.283749      2.742228
  H       1.683124      2.617709      3.493717
  H       2.074923      4.141117      2.822873
  H       0.186102      4.227000      1.505031
  H       1.781334      1.999533     -0.530851
  Cu      1.925450      2.475422      0.895920
18
Coordinates from ORCA-job orca E -1967.143574440753
  C      -2.975635      1.811542      1.585146
  C      -1.884686      2.655104      1.481696
  C      -0.717832      2.395017      2.223744
  C      -0.665143      1.270569      3.069092
  C      -1.760326      0.436696      3.167297
  C      -2.914208      0.703377      2.425821
  H      -3.871902      2.013486      1.014718
  H      -3.766682      0.041663      2.507468
  H      -1.918510      3.518021      0.829052
  H       0.223141      1.045122      3.644277
  H      -1.723740     -0.426139      3.818327
  C       0.365500      3.318599      2.067915
  N       1.537378      3.283099      2.741966
  H       1.682778      2.617780      3.494102
  H       2.074938      4.140406      2.821701
  H       0.185726      4.227445      1.505704
  H       1.784849      2.000628     -0.531184
  Cu      1.926210      2.475542      0.896088
18
Coordinates from ORCA-job orca E -1967.143575479665
  C      -2.976311      1.811874      1.585800
  C      -1.885628      2.655739      1.482297
  C      -0.718320      2.395296      2.223570
  C      -0.665028      1.270493      3.068439
  C      -1.760078      0.436401      3.166742
  C      -2.914273      0.703295      2.425894
  H      -3.872846      2.013802      1.015784
  H      -3.766613      0.041402      2.507516
  H      -1.919706      3.519166      0.830344
  H       0.223683      1.044714      3.642818
  H      -1.723029     -0.426759      3.817310
  C       0.364799      3.319133      2.068093
  N       1.536917      3.282998      2.741666
  H       1.681809      2.619135      3.495179
  H       2.074946      4.140188      2.819799
  H       0.186173      4.227496      1.504762
  H       1.788257      1.999320     -0.530252
  Cu      1.927105      2.474265      0.897168
18
Coordinates from ORCA-job orca E -1967.143573521448
  C      -2.976845      1.812345      1.586480
  C      -1.886447      2.656609      1.483228
  C      -0.718732      2.395806      2.223775
  C      -0.664917      1.270531      3.068014
  C      -1.759682      0.436031      3.165996
  C      -2.914113      0.703044      2.425552
  H      -3.873683      2.014397      1.016979
  H      -3.766096      0.040607      2.506501
  H      -1.920857      3.520695      0.832171
  H       0.224034      1.044483      3.641901
  H      -1.722145     -0.427569      3.815951
  C       0.364429      3.319428      2.067835
  N       1.536584      3.283309      2.741462
  H       1.680779      2.620950      3.496432
  H       2.074992      4.140403      2.818146
  H       0.187029      4.227069      1.502983
  H       1.789636      1.997313     -0.528914
  Cu      1.927891      2.472504      0.898436
18
Coordinates from ORCA-job orca E -1967.143577215233
  C      -2.977090      1.812628      1.586852
  C      -1.886815      2.657096      1.483849
  C      -0.718925      2.396125      2.224095
  C      -0.664935      1.270565      3.067979
  C      -1.759501      0.435807      3.165604
  C      -2.914006      0.702846      2.425237
  H      -3.874099      2.014825      1.017677
  H      -3.765726      0.039998      2.505567
  H      -1.921413      3.521552      0.833292
  H       0.224010      1.044433      3.641837
  H      -1.721739     -0.428055      3.815199
  C       0.364359      3.319386      2.067511
  N       1.536502      3.283598      2.741306
  H       1.680289      2.622036      3.497061
  H       2.075032      4.140675      2.817346
  H       0.187599      4.226538      1.501693
  H       1.789801      1.996408     -0.528263
  Cu      1.928513      2.471493      0.899085
18
Coordinates from ORCA-job orca E -1967.143576757601
  C      -2.977281      1.812812      1.587131
  C      -1.886977      2.657257      1.484151
  C      -0.718999      2.396180      2.224236
  C      -0.664983      1.270474      3.067951
  C      -1.759482      0.435666      3.165452
  C      -2.914072      0.702801      2.425197
  H      -3.874409      2.015173      1.018204
  H      -3.765713      0.039824      2.505299
  H      -1.921666      3.521831      0.833756
  H       0.223952      1.044284      3.641808
  H      -1.721634     -0.428337      3.814852
  C       0.364348      3.319169      2.067197
  N       1.536443      3.283802      2.741179
  H       1.680027      2.622551      3.497251
  H       2.074869      4.140944      2.817154
  H       0.187797      4.226023      1.500834
  H       1.790354      1.996349     -0.528090
  Cu      1.929283      2.471154      0.899368
18
Coordinates from ORCA-job orca E -1967.143578295453
  C      -2.977401      1.812835      1.587252
  C      -1.886981      2.657112      1.484120
  C      -0.719003      2.396022      2.224210
  C      -0.665075      1.270335      3.067971
  C      -1.759634      0.435657      3.165586
  C      -2.914272      0.702882      2.425406
  H      -3.874566      2.015281      1.018414
  H      -3.765988      0.040019      2.505635
  H      -1.921653      3.521585      0.833589
  H       0.223846      1.044132      3.641844
  H      -1.721833     -0.428332      3.815009
  C       0.364344      3.318882      2.067016
  N       1.536421      3.283800      2.741070
  H       1.680025      2.622383      3.497003
  H       2.074599      4.141065      2.817446
  H       0.187743      4.225635      1.500509
  H       1.791185      1.997214     -0.528428
  Cu      1.930097      2.471449      0.899277
