18
Properties=species:S:1:pos:R:3 energy=-1967.141967495691 pbc="F F F"
C       -2.98932800       1.85415000       1.63698600
C       -1.86899100       2.64494400       1.44677100
C       -0.67540700       2.34366100       2.11989800
C       -0.60078200       1.19990400       2.93317400
C       -1.71986700       0.40997600       3.10735300
C       -2.91929500       0.74555200       2.47542400
H       -3.91630600       2.10383700       1.13926500
H       -3.79813100       0.13514000       2.63579700
H       -1.90913100       3.50931600       0.79621800
H        0.33016600       0.91505300       3.40728100
H       -1.66542400      -0.46971300       3.73436600
C        0.41212400       3.27477200       1.97076700
N        1.47867600       3.34337500       2.81158200
H        1.50085900       2.77118700       3.64837300
H        1.97334700       4.22523900       2.88937900
H        0.26230500       4.14181000       1.33877400
H        1.67279900       1.96948700      -0.36398700
Cu       2.01424200       2.41026600       1.03550800
18
Properties=species:S:1:pos:R:3 energy=-1967.142269203636 pbc="F F F"
C       -2.98399100       1.84391900       1.62320500
C       -1.87054500       2.65081400       1.45898400
C       -0.67990900       2.35370500       2.14084400
C       -0.61496200       1.22041900       2.96993000
C       -1.72930900       0.41894200       3.12394400
C       -2.91587500       0.73218200       2.45727100
H       -3.90264900       2.07973200       1.10329800
H       -3.78693700       0.10377700       2.58982700
H       -1.90971300       3.51565100       0.80912700
H        0.30631100       0.95067500       3.47061000
H       -1.67910400      -0.45678500       3.75681300
C        0.41480200       3.27682500       1.97986800
N        1.49826600       3.32886600       2.80056100
H        1.53680700       2.74521200       3.62835500
H        2.00168200       4.20576600       2.87808700
H        0.25873700       4.15248300       1.36127800
H        1.64008400       1.99183600      -0.39518800
Cu       1.99816100       2.41393700       1.00611400
18
Properties=species:S:1:pos:R:3 energy=-1967.142686068079 pbc="F F F"
C       -2.96629200       1.81851200       1.58824600
C       -1.86484600       2.64902100       1.46616400
C       -0.69022300       2.37449500       2.18643400
C       -0.64446900       1.25904900       3.04099600
C       -1.74913500       0.43765200       3.15833800
C       -2.90733300       0.71023900       2.42743700
H       -3.86669600       2.02908800       1.02693400
H       -3.76290500       0.05292800       2.51374800
H       -1.89939500       3.51127300       0.81267900
H        0.25172200       1.02242400       3.60001000
H       -1.71260200      -0.42355400       3.81170900
C        0.41607200       3.28292200       2.00861700
N        1.53712800       3.29398000       2.77923600
H        1.61527600       2.67769400       3.57963200
H        2.05927100       4.15964000       2.85963600
H        0.24628300       4.18011300       1.42552900
H        1.56419000       2.05843200      -0.46424200
Cu       1.95580900       2.43405000       0.94182400
18
Properties=species:S:1:pos:R:3 energy=-1967.14283730969 pbc="F F F"
C       -2.95253100       1.80248100       1.56607400
C       -1.85591700       2.64073800       1.46119600
C       -0.69481400       2.38294000       2.20962200
C       -0.65959900       1.27641000       3.07621700
C       -1.76051300       0.44798400       3.17813100
C       -2.90343400       0.70260300       2.41745400
H       -3.84212700       2.00061300       0.98352900
H       -3.75456200       0.03791400       2.48978000
H       -1.88355400       3.49633500       0.79858000
H        0.22175100       1.05568800       3.66381800
H       -1.73376900      -0.40320500       3.84495400
C        0.41338000       3.28698900       2.03072500
N        1.55560500       3.27335900       2.76850100
H        1.65922100       2.63363700       3.54770900
H        2.08627900       4.13345900       2.85319100
H        0.23567500       4.19765800       1.47128200
H        1.52250400       2.10669700      -0.50356100
Cu       1.92826200       2.45565300       0.90572700
18
Properties=species:S:1:pos:R:3 energy=-1967.143001414095 pbc="F F F"
C       -2.93684300       1.78500200       1.54302500
C       -1.84201900       2.62512600       1.44887900
C       -0.69694500       2.38495900       2.22782300
C       -0.67292000       1.28808400       3.10692200
C       -1.77315700       0.45767000       3.19887700
C       -2.90232200       0.69903400       2.41388900
H       -3.81571200       1.97254800       0.94127100
H       -3.75518600       0.03650100       2.48400700
H       -1.85814500       3.46964200       0.77170700
H        0.19262800       1.08235300       3.72251500
H       -1.75846100      -0.38133700       3.88130600
C        0.40734100       3.29086500       2.05772600
N        1.57053900       3.25225000       2.75791800
H        1.70381000       2.58382400       3.50829000
H        2.10616500       4.10851400       2.85122900
H        0.22095900       4.21617200       1.52555700
H        1.49180300       2.16628500      -0.54648200
Cu       1.90032200       2.49046500       0.86846800
18
Properties=species:S:1:pos:R:3 energy=-1967.143110737083 pbc="F F F"
C       -2.93420600       1.78042800       1.53807700
C       -1.83805000       2.61753000       1.44099100
C       -0.69711900       2.38224500       2.22781200
C       -0.67416200       1.28824700       3.10997300
C       -1.77592300       0.46009300       3.20426600
C       -2.90453100       0.70157400       2.41868700
H       -3.81149600       1.96585200       0.93350900
H       -3.76186700       0.04587900       2.49708300
H       -1.84893800       3.45609900       0.75638200
H        0.18995900       1.08466300       3.72861200
H       -1.76332100      -0.37571900       3.89063000
C        0.40155000       3.29349300       2.06809400
N        1.56986200       3.24634600       2.75632400
H        1.71303800       2.56543400       3.49395800
H        2.10507600       4.10231500       2.85604900
H        0.21439600       4.22303700       1.54342200
H        1.50335800       2.18333700      -0.56069300
Cu       1.89423100       2.50710400       0.85975300
18
Properties=species:S:1:pos:R:3 energy=-1967.143244659426 pbc="F F F"
C       -2.93962900       1.78256300       1.54262200
C       -1.84188300       2.61577600       1.43735400
C       -0.69868700       2.37924800       2.22115900
C       -0.67071300       1.28352200       3.10070100
C       -1.77409400       0.45822100       3.20174500
C       -2.90855200       0.70632200       2.42708500
H       -3.81996900       1.96938200       0.94303100
H       -3.77092200       0.05899100       2.51817900
H       -1.85117500       3.45198800       0.74994200
H        0.19925700       1.07532500       3.70976500
H       -1.75772500      -0.37999400       3.88505600
C        0.39211400       3.29904500       2.07435400
N        1.56121500       3.24884300       2.75734700
H        1.70927000       2.56025600       3.48707600
H        2.09446100       4.10569900       2.86175000
H        0.20951300       4.22755100       1.54611700
H        1.55242200       2.16963600      -0.56414200
Cu       1.89695400       2.51558300       0.86378700
18
Properties=species:S:1:pos:R:3 energy=-1967.143371460923 pbc="F F F"
C       -2.94752500       1.78718700       1.55031100
C       -1.85146500       2.62214400       1.44370000
C       -0.70341600       2.38150700       2.22014400
C       -0.66989300       1.28126000       3.09451600
C       -1.77204500       0.45450000       3.19642900
C       -2.91067600       0.70667900       2.42944700
H       -3.83092000       1.97512800       0.95557700
H       -3.77300100       0.05961000       2.52305300
H       -1.86327600       3.46203200       0.76091800
H        0.20440900       1.06915400       3.69580100
H       -1.75072900      -0.38864400       3.87347300
C        0.38231200       3.30682800       2.07959100
N        1.55444800       3.25502600       2.75456800
H        1.70820400       2.56245700       3.47931900
H        2.08816500       4.11185700       2.85820100
H        0.20551900       4.23178400       1.54320100
H        1.61270700       2.13447400      -0.56413200
Cu       1.89903800       2.51497100       0.86881100
18
Properties=species:S:1:pos:R:3 energy=-1967.143484897761 pbc="F F F"
C       -2.95983200       1.79669600       1.56428900
C       -1.86758200       2.63729600       1.46001400
C       -0.71082400       2.38847600       2.22170800
C       -0.66843800       1.27878200       3.08501200
C       -1.76698800       0.44758500       3.18479000
C       -2.91138100       0.70431900       2.42746100
H       -3.84854800       1.98829600       0.97866100
H       -3.76915900       0.05035300       2.51549000
H       -1.88788200       3.48786200       0.79084400
H        0.21145200       1.06178300       3.67616100
H       -1.73815100      -0.40377900       3.85114600
C        0.37241100       3.31557000       2.07893800
N        1.54626100       3.26710400       2.74960700
H        1.70139100       2.57818800       3.47773000
H        2.08188500       4.12367000       2.84656400
H        0.20191600       4.23293500       1.52766400
H        1.69009500       2.07180300      -0.55290400
Cu       1.90523100       2.50101700       0.87975400
18
Properties=species:S:1:pos:R:3 energy=-1967.143542923956 pbc="F F F"
C       -2.96941700       1.80568900       1.57671900
C       -1.87988800       2.65087800       1.47564800
C       -0.71627500       2.39501200       2.22466000
C       -0.66696500       1.27634300       3.07713900
C       -1.76205600       0.44111900       3.17347500
C       -2.91116800       0.70180000       2.42366600
H       -3.86276100       2.00206300       0.99974300
H       -3.76385700       0.04012700       2.50362700
H       -1.90876000       3.51132300       0.81956200
H        0.21700100       1.05532000       3.66055900
H       -1.72753200      -0.41738400       3.83032200
C        0.36721500       3.32009700       2.07370500
N        1.54075100       3.27838200       2.74511200
H        1.69303700       2.59849900       3.48242300
H        2.07795300       4.13491200       2.83370800
H        0.19791700       4.23058500       1.51079000
H        1.74407100       2.01883100      -0.53799000
Cu       1.91259100       2.48436100       0.89005900
18
Properties=species:S:1:pos:R:3 energy=-1967.143562158924 pbc="F F F"
C       -2.97336000       1.81025600       1.58268200
C       -1.88416300       2.65641600       1.48243100
C       -0.71785100       2.39734100       2.22589400
C       -0.66575300       1.27417200       3.07278600
C       -1.75962700       0.43785200       3.16785200
C       -2.91130100       0.70123000       2.42215800
H       -3.86892100       2.00997700       1.01031300
H       -3.76195200       0.03655200       2.49879400
H       -1.91714500       3.52073200       0.83162400
H        0.22029300       1.05078600       3.65215100
H       -1.72291500      -0.42409500       3.82005400
C        0.36649200       3.32022400       2.06903500
N        1.53856200       3.28391000       2.74345200
H        1.68696900       2.61155100       3.48855000
H        2.07609400       4.14072500       2.82720600
H        0.19436600       4.22779100       1.50231600
H        1.76388900       1.99703200      -0.52985600
Cu       1.91818000       2.47550400       0.89549000
18
Properties=species:S:1:pos:R:3 energy=-1967.143568144069 pbc="F F F"
C       -2.97466200       1.81187000       1.58478800
C       -1.88480800       2.65728300       1.48386300
C       -0.71788900       2.39719400       2.22580900
C       -0.66518000       1.27247200       3.07076500
C       -1.75913600       0.43665400       3.16620400
C       -2.91205500       0.70173500       2.42261800
H       -3.87096200       2.01338900       1.01423200
H       -3.76270000       0.03710700       2.49961300
H       -1.91907300       3.52201300       0.83365300
H        0.22186200       1.04791000       3.64817500
H       -1.72207500      -0.42644600       3.81685900
C        0.36669900       3.31917500       2.06685000
N        1.53789600       3.28543600       2.74285200
H        1.68400700       2.61725900       3.49224600
H        2.07526500       4.14256500       2.82455800
H        0.19078800       4.22641600       1.50081400
H        1.77193100       1.99281100      -0.52798700
Cu       1.92195100       2.47311300       0.89701800
18
Properties=species:S:1:pos:R:3 energy=-1967.143571736908 pbc="F F F"
C       -2.97496600       1.81189600       1.58502000
C       -1.88436800       2.65620600       1.48292900
C       -0.71761600       2.39611700       2.22506300
C       -0.66511000       1.27136900       3.07001900
C       -1.75965300       0.43657000       3.16660700
C       -2.91307000       0.70256400       2.42400100
H       -3.87126800       2.01398800       1.01469400
H       -3.76454200       0.03924800       2.50300000
H       -1.91855600       3.51997800       0.83143100
H        0.22241800       1.04636800       3.64653800
H       -1.72295600      -0.42650000       3.81732300
C        0.36663000       3.31837100       2.06671800
N        1.53780300       3.28476100       2.74250900
H        1.68325900       2.61814100       3.49347000
H        2.07502700       4.14207600       2.82361400
H        0.18775500       4.22644700       1.50296300
H        1.77688500       1.99619500      -0.52942900
Cu       1.92418600       2.47415700       0.89645900
18
Properties=species:S:1:pos:R:3 energy=-1967.143574185954 pbc="F F F"
C       -2.97523700       1.81161600       1.58497300
C       -1.88426800       2.65526500       1.48193700
C       -0.71758300       2.39526300       2.22423100
C       -0.66514700       1.27077000       3.06953200
C       -1.76017100       0.43669700       3.16718900
C       -2.91385500       0.70316800       2.42523000
H       -3.87146000       2.01370500       1.01453400
H       -3.76605300       0.04100700       2.50604100
H       -1.91816800       3.51829200       0.82943300
H        0.22277600       1.04553600       3.64536300
H       -1.72369300      -0.42615700       3.81820200
C        0.36613400       3.31826500       2.06734700
N        1.53765000       3.28374900       2.74222800
H        1.68312400       2.61770900       3.49371700
H        2.07492300       4.14111700       2.82287300
H        0.18610200       4.22700000       1.50503100
H        1.78133400       1.99953300      -0.53085100
Cu       1.92545000       2.47542200       0.89592000
18
Properties=species:S:1:pos:R:3 energy=-1967.143574440753 pbc="F F F"
C       -2.97563500       1.81154200       1.58514600
C       -1.88468600       2.65510400       1.48169600
C       -0.71783200       2.39501700       2.22374400
C       -0.66514300       1.27056900       3.06909200
C       -1.76032600       0.43669600       3.16729700
C       -2.91420800       0.70337700       2.42582100
H       -3.87190200       2.01348600       1.01471800
H       -3.76668200       0.04166300       2.50746800
H       -1.91851000       3.51802100       0.82905200
H        0.22314100       1.04512200       3.64427700
H       -1.72374000      -0.42613900       3.81832700
C        0.36550000       3.31859900       2.06791500
N        1.53737800       3.28309900       2.74196600
H        1.68277800       2.61778000       3.49410200
H        2.07493800       4.14040600       2.82170100
H        0.18572600       4.22744500       1.50570400
H        1.78484900       2.00062800      -0.53118400
Cu       1.92621000       2.47554200       0.89608800
18
Properties=species:S:1:pos:R:3 energy=-1967.143575479665 pbc="F F F"
C       -2.97631100       1.81187400       1.58580000
C       -1.88562800       2.65573900       1.48229700
C       -0.71832000       2.39529600       2.22357000
C       -0.66502800       1.27049300       3.06843900
C       -1.76007800       0.43640100       3.16674200
C       -2.91427300       0.70329500       2.42589400
H       -3.87284600       2.01380200       1.01578400
H       -3.76661300       0.04140200       2.50751600
H       -1.91970600       3.51916600       0.83034400
H        0.22368300       1.04471400       3.64281800
H       -1.72302900      -0.42675900       3.81731000
C        0.36479900       3.31913300       2.06809300
N        1.53691700       3.28299800       2.74166600
H        1.68180900       2.61913500       3.49517900
H        2.07494600       4.14018800       2.81979900
H        0.18617300       4.22749600       1.50476200
H        1.78825700       1.99932000      -0.53025200
Cu       1.92710500       2.47426500       0.89716800
18
Properties=species:S:1:pos:R:3 energy=-1967.143573521448 pbc="F F F"
C       -2.97684500       1.81234500       1.58648000
C       -1.88644700       2.65660900       1.48322800
C       -0.71873200       2.39580600       2.22377500
C       -0.66491700       1.27053100       3.06801400
C       -1.75968200       0.43603100       3.16599600
C       -2.91411300       0.70304400       2.42555200
H       -3.87368300       2.01439700       1.01697900
H       -3.76609600       0.04060700       2.50650100
H       -1.92085700       3.52069500       0.83217100
H        0.22403400       1.04448300       3.64190100
H       -1.72214500      -0.42756900       3.81595100
C        0.36442900       3.31942800       2.06783500
N        1.53658400       3.28330900       2.74146200
H        1.68077900       2.62095000       3.49643200
H        2.07499200       4.14040300       2.81814600
H        0.18702900       4.22706900       1.50298300
H        1.78963600       1.99731300      -0.52891400
Cu       1.92789100       2.47250400       0.89843600
18
Properties=species:S:1:pos:R:3 energy=-1967.143577215233 pbc="F F F"
C       -2.97709000       1.81262800       1.58685200
C       -1.88681500       2.65709600       1.48384900
C       -0.71892500       2.39612500       2.22409500
C       -0.66493500       1.27056500       3.06797900
C       -1.75950100       0.43580700       3.16560400
C       -2.91400600       0.70284600       2.42523700
H       -3.87409900       2.01482500       1.01767700
H       -3.76572600       0.03999800       2.50556700
H       -1.92141300       3.52155200       0.83329200
H        0.22401000       1.04443300       3.64183700
H       -1.72173900      -0.42805500       3.81519900
C        0.36435900       3.31938600       2.06751100
N        1.53650200       3.28359800       2.74130600
H        1.68028900       2.62203600       3.49706100
H        2.07503200       4.14067500       2.81734600
H        0.18759900       4.22653800       1.50169300
H        1.78980100       1.99640800      -0.52826300
Cu       1.92851300       2.47149300       0.89908500
18
Properties=species:S:1:pos:R:3 energy=-1967.143576757601 pbc="F F F"
C       -2.97728100       1.81281200       1.58713100
C       -1.88697700       2.65725700       1.48415100
C       -0.71899900       2.39618000       2.22423600
C       -0.66498300       1.27047400       3.06795100
C       -1.75948200       0.43566600       3.16545200
C       -2.91407200       0.70280100       2.42519700
H       -3.87440900       2.01517300       1.01820400
H       -3.76571300       0.03982400       2.50529900
H       -1.92166600       3.52183100       0.83375600
H        0.22395200       1.04428400       3.64180800
H       -1.72163400      -0.42833700       3.81485200
C        0.36434800       3.31916900       2.06719700
N        1.53644300       3.28380200       2.74117900
H        1.68002700       2.62255100       3.49725100
H        2.07486900       4.14094400       2.81715400
H        0.18779700       4.22602300       1.50083400
H        1.79035400       1.99634900      -0.52809000
Cu       1.92928300       2.47115400       0.89936800
18
Properties=species:S:1:pos:R:3 energy=-1967.143578295453 pbc="F F F"
C       -2.97740100       1.81283500       1.58725200
C       -1.88698100       2.65711200       1.48412000
C       -0.71900300       2.39602200       2.22421000
C       -0.66507500       1.27033500       3.06797100
C       -1.75963400       0.43565700       3.16558600
C       -2.91427200       0.70288200       2.42540600
H       -3.87456600       2.01528100       1.01841400
H       -3.76598800       0.04001900       2.50563500
H       -1.92165300       3.52158500       0.83358900
H        0.22384600       1.04413200       3.64184400
H       -1.72183300      -0.42833200       3.81500900
C        0.36434400       3.31888200       2.06701600
N        1.53642100       3.28380000       2.74107000
H        1.68002500       2.62238300       3.49700300
H        2.07459900       4.14106500       2.81744600
H        0.18774300       4.22563500       1.50050900
H        1.79118500       1.99721400      -0.52842800
Cu       1.93009700       2.47144900       0.89927700
