18
Properties=species:S:1:pos:R:3 energy=-1967.195634616517 pbc="F F F"
C       -2.99095700       1.81388700       1.61345800
C       -1.90736000       2.66701000       1.51014400
C       -0.73023300       2.40350600       2.23447100
C       -0.65969600       1.26654800       3.06126800
C       -1.74709800       0.42257100       3.15860900
C       -2.91127400       0.69236200       2.43463900
H       -3.89702800       2.01350400       1.05589900
H       -3.75623200       0.02045800       2.51289600
H       -1.95403400       3.54525200       0.87788500
H        0.27196200       1.02257100       3.56497400
H       -1.69346400      -0.46330600       3.77856900
C        0.41391100       3.38201900       2.23413900
N        0.32295400       4.23441500       3.46162300
H        0.40315400       4.00410600       1.33873500
H        1.36637000       2.85550400       2.27934100
H        1.22550400       4.64838700       3.67824200
H       -0.31598100       5.00845500       3.29503400
Cu      -0.47202400       3.09329000       4.89352000
18
Properties=species:S:1:pos:R:3 energy=-1967.196138248479 pbc="F F F"
C       -2.98579100       1.80723100       1.61575300
C       -1.89693600       2.66479800       1.51392100
C       -0.72806400       2.40646300       2.23161200
C       -0.66195100       1.26902500       3.05348700
C       -1.75511900       0.41781100       3.15682300
C       -2.91874900       0.68963100       2.44174900
H       -3.88992200       2.00996400       1.05619600
H       -3.76648300       0.02132300       2.52058000
H       -1.94422400       3.54259100       0.88108400
H        0.27025900       1.02388500       3.55564300
H       -1.69909700      -0.46750100       3.77737800
C        0.41525400       3.38601900       2.23327700
N        0.32223500       4.23646200       3.46185900
H        0.40405400       4.00946900       1.33882400
H        1.36835000       2.86067400       2.27817500
H        1.22389500       4.65175600       3.67955800
H       -0.31814200       5.00954600       3.29618600
Cu      -0.47109600       3.09139200       4.89134100
18
Properties=species:S:1:pos:R:3 energy=-1967.196189939528 pbc="F F F"
C       -2.98417600       1.80526600       1.61746300
C       -1.89288800       2.66357000       1.51432300
C       -0.72709100       2.40801600       2.22964000
C       -0.66261200       1.27001400       3.04902100
C       -1.75773600       0.41640900       3.15673500
C       -2.92139900       0.68821200       2.44380700
H       -3.88715200       2.01027400       1.05673700
H       -3.77109800       0.02272500       2.52367800
H       -1.94338500       3.54013500       0.87973500
H        0.26934800       1.02337900       3.55124400
H       -1.69830700      -0.46712000       3.77920600
C        0.41650200       3.38746500       2.23333000
N        0.32157300       4.23677900       3.46242200
H        0.40554100       4.01148400       1.33928900
H        1.36969900       2.86238900       2.27859600
H        1.22257200       4.65281700       3.68123000
H       -0.31951800       5.00929000       3.29692900
Cu      -0.47139900       3.08943600       4.89006100
18
Properties=species:S:1:pos:R:3 energy=-1967.196197835952 pbc="F F F"
C       -2.98389200       1.80484200       1.61757400
C       -1.89227900       2.66322800       1.51342300
C       -0.72661300       2.40859000       2.22849000
C       -0.66240200       1.27016200       3.04713100
C       -1.75785500       0.41665800       3.15709800
C       -2.92200100       0.68839700       2.44459900
H       -3.88637500       2.01084200       1.05640100
H       -3.77265100       0.02424800       2.52527800
H       -1.94560400       3.53882200       0.87764900
H        0.26912200       1.02239700       3.54973000
H       -1.69609000      -0.46564000       3.78098600
C        0.41727100       3.38776900       2.23355600
N        0.32111500       4.23635000       3.46299100
H        0.40671900       4.01212300       1.33971600
H        1.37037100       2.86262800       2.27921800
H        1.22175300       4.65277200       3.68255400
H       -0.32031000       5.00858300       3.29753000
Cu      -0.47180900       3.08776700       4.88952200
18
Properties=species:S:1:pos:R:3 energy=-1967.196202177554 pbc="F F F"
C       -2.98362700       1.80469600       1.61755600
C       -1.89192500       2.66291000       1.51176800
C       -0.72585700       2.40902800       2.22673100
C       -0.66182000       1.27019300       3.04493200
C       -1.75752000       0.41763700       3.15777500
C       -2.92233900       0.68924800       2.44575800
H       -3.88555100       2.01181500       1.05590500
H       -3.77409300       0.02663800       2.52757500
H       -1.94906400       3.53715600       0.87447600
H        0.26908800       1.02080300       3.54794900
H       -1.69274700      -0.46308300       3.78352000
C        0.41820300       3.38796000       2.23375400
N        0.32019100       4.23538500       3.46378000
H        0.40846700       4.01286400       1.34024900
H        1.37113900       2.86267900       2.28014500
H        1.22028400       4.65242000       3.68446500
H       -0.32173900       5.00720200       3.29835100
Cu      -0.47261700       3.08498800       4.88875700
18
Properties=species:S:1:pos:R:3 energy=-1967.196202381996 pbc="F F F"
C       -2.98355000       1.80485600       1.61758500
C       -1.89182100       2.66285300       1.51127400
C       -0.72553600       2.40888200       2.22612500
C       -0.66150500       1.27016300       3.04458800
C       -1.75733100       0.41812200       3.15799400
C       -2.92227000       0.68970700       2.44618000
H       -3.88546100       2.01213100       1.05597300
H       -3.77419400       0.02734900       2.52836200
H       -1.94944800       3.53688700       0.87376600
H        0.26938000       1.02043000       3.54746300
H       -1.69221100      -0.46236800       3.78404800
C        0.41835100       3.38794600       2.23363900
N        0.31968600       4.23496800       3.46390900
H        0.40898500       4.01307100       1.34028400
H        1.37129000       2.86269300       2.28037100
H        1.21957100       4.65228400       3.68493700
H       -0.32245800       5.00661100       3.29847800
Cu      -0.47300700       3.08395500       4.88847000
18
Properties=species:S:1:pos:R:3 energy=-1967.196202350572 pbc="F F F"
C       -2.98338000       1.80523600       1.61773000
C       -1.89144300       2.66271100       1.51039000
C       -0.72480600       2.40845700       2.22484000
C       -0.66078700       1.27014600       3.04401800
C       -1.75700500       0.41905700       3.15842400
C       -2.92216300       0.69065700       2.44710400
H       -3.88539300       2.01272100       1.05635900
H       -3.77437200       0.02875900       2.53012300
H       -1.94937900       3.53649200       0.87260300
H        0.27025800       1.01989300       3.54630600
H       -1.69170200      -0.46113300       3.78493200
C        0.41862400       3.38793400       2.23326800
N        0.31850000       4.23410100       3.46407100
H        0.41004100       4.01353800       1.34025800
H        1.37164400       2.86285700       2.28078900
H        1.21790600       4.65209300       3.68581900
H       -0.32415300       5.00532500       3.29862200
Cu      -0.47391600       3.08169700       4.88779000
18
Properties=species:S:1:pos:R:3 energy=-1967.196202089051 pbc="F F F"
C       -2.98322500       1.80557900       1.61791700
C       -1.89097400       2.66255500       1.50966500
C       -0.72411500       2.40807200       2.22364600
C       -0.66009900       1.27019900       3.04349900
C       -1.75675900       0.41980500       3.15882900
C       -2.92214000       0.69150500       2.44799500
H       -3.88541200       2.01317100       1.05686300
H       -3.77460100       0.03004700       2.53187600
H       -1.94875600       3.53618300       0.87166600
H        0.27124400       1.01958700       3.54503900
H       -1.69161800      -0.46016800       3.78568500
C        0.41891500       3.38795500       2.23287100
N        0.31735200       4.23332500       3.46417100
H        0.41100800       4.01400300       1.34018700
H        1.37205700       2.86313900       2.28115500
H        1.21627700       4.65199600       3.68661900
H       -0.32582200       5.00411800       3.29870400
Cu      -0.47486100       3.07946700       4.88705700
18
Properties=species:S:1:pos:R:3 energy=-1967.19620174084 pbc="F F F"
C       -2.98309800       1.80584800       1.61810000
C       -1.89051200       2.66241300       1.50909800
C       -0.72355400       2.40782400       2.22265200
C       -0.65951800       1.27032400       3.04303500
C       -1.75657400       0.42034700       3.15921600
C       -2.92217100       0.69221400       2.44878000
H       -3.88549100       2.01341700       1.05736700
H       -3.77484100       0.03114100       2.53347200
H       -1.94786000       3.53594000       0.87090800
H        0.27219400       1.01949100       3.54378100
H       -1.69180800      -0.45945700       3.78634500
C        0.41921500       3.38801000       2.23251800
N        0.31638900       4.23269500       3.46423800
H        0.41178600       4.01442500       1.34010100
H        1.37248900       2.86348000       2.28143200
H        1.21488700       4.65195000       3.68733200
H       -0.32724500       5.00310800       3.29877400
Cu      -0.47581500       3.07737000       4.88629600
18
Properties=species:S:1:pos:R:3 energy=-1967.196201625495 pbc="F F F"
C       -2.98304900       1.80592200       1.61816500
C       -1.89032600       2.66236300       1.50889100
C       -0.72339200       2.40784000       2.22231600
C       -0.65932100       1.27044900       3.04284400
C       -1.75650500       0.42050900       3.15943300
C       -2.92219500       0.69248600       2.44909800
H       -3.88555300       2.01335500       1.05756400
H       -3.77493300       0.03155600       2.53414400
H       -1.94735100       3.53584400       0.87059100
H        0.27260400       1.01957600       3.54319500
H       -1.69202400      -0.45922500       3.78666900
C        0.41936600       3.38807300       2.23238700
N        0.31609300       4.23248600       3.46427100
H        0.41199500       4.01461300       1.34005900
H        1.37269700       2.86367600       2.28146900
H        1.21443900       4.65190700       3.68766100
H       -0.32769600       5.00277600       3.29885000
Cu      -0.47637600       3.07633200       4.88583900
18
Properties=species:S:1:pos:R:3 energy=-1967.196201640693 pbc="F F F"
C       -2.98301600       1.80590900       1.61816600
C       -1.89026400       2.66235100       1.50877800
C       -0.72338800       2.40798500       2.22222900
C       -0.65927500       1.27059700       3.04277100
C       -1.75646500       0.42058800       3.15963300
C       -2.92219100       0.69261900       2.44926400
H       -3.88558400       2.01313500       1.05759500
H       -3.77494300       0.03173000       2.53449500
H       -1.94708000       3.53577800       0.87037000
H        0.27279300       1.01972300       3.54288800
H       -1.69219000      -0.45909400       3.78693700
C        0.41944900       3.38816600       2.23233900
N        0.31609300       4.23242700       3.46431200
H        0.41194100       4.01475300       1.34003900
H        1.37280100       2.86382500       2.28135300
H        1.21441000       4.65179200       3.68790100
H       -0.32769900       5.00273000       3.29899100
Cu      -0.47692200       3.07552200       4.88538600
